# generated using pymatgen
data_SiO2
_symmetry_space_group_name_H-M   'P 1'
_cell_length_a   19.95132824
_cell_length_b   23.95691218
_cell_length_c   12.61157101
_cell_angle_alpha   90.00000000
_cell_angle_beta   90.00000000
_cell_angle_gamma   90.00000000
_symmetry_Int_Tables_number   1
_chemical_formula_structural   SiO2
_chemical_formula_sum   'Si96 O192'
_cell_volume   6027.98057501
_cell_formula_units_Z   96
loop_
 _symmetry_equiv_pos_site_id
 _symmetry_equiv_pos_as_xyz
  1  'x, y, z'
loop_
 _atom_site_type_symbol
 _atom_site_label
 _atom_site_symmetry_multiplicity
 _atom_site_fract_x
 _atom_site_fract_y
 _atom_site_fract_z
 _atom_site_occupancy
  O  O1  1  0.198240  0.141812  0.580824  1
  O  O2  1  0.301797  0.141823  0.919228  1
  O  O3  1  0.123820  0.175986  0.740216  1
  O  O4  1  0.123824  0.323912  0.740188  1
  O  O5  1  0.376229  0.323921  0.759790  1
  O  O6  1  0.376227  0.175993  0.759845  1
  O  O7  1  0.191334  0.249951  0.640515  1
  O  O8  1  0.308721  0.249962  0.859504  1
  O  O9  1  0.250025  0.176757  0.750017  1
  O  O10  1  0.250026  0.323147  0.749991  1
  O  O11  1  0.098461  0.142796  0.928249  1
  O  O12  1  0.401589  0.142788  0.571835  1
  O  O13  1  0.000022  0.177416  0.814405  1
  O  O14  1  0.000037  0.322490  0.814395  1
  O  O15  1  0.086216  0.249953  0.869786  1
  O  O16  1  0.413851  0.249950  0.630246  1
  O  O17  1  0.196345  0.064740  0.425144  1
  O  O18  1  0.303724  0.064748  0.074903  1
  O  O19  1  0.300644  0.037367  0.879255  1
  O  O20  1  0.199353  0.037356  0.620788  1
  O  O21  1  0.123579  0.026049  0.265239  1
  O  O22  1  0.376465  0.026052  0.234844  1
  O  O23  1  0.250021  0.031293  0.250017  1
  O  O24  1  0.095925  0.063714  0.078348  1
  O  O25  1  0.404091  0.063706  0.421747  1
  O  O26  1  0.404588  0.038982  0.614531  1
  O  O27  1  0.095473  0.038993  0.885560  1
  Si  Si28  1  0.377860  0.083333  0.533409  1
  O  O29  1  0.299783  0.080411  0.535202  1
  O  O30  1  0.200255  0.080431  0.964950  1
  Si  Si31  1  0.189348  0.186089  0.672633  1
  Si  Si32  1  0.189351  0.313816  0.672605  1
  Si  Si33  1  0.310704  0.313822  0.827375  1
  Si  Si34  1  0.310694  0.186097  0.827411  1
  Si  Si35  1  0.077054  0.185999  0.839584  1
  Si  Si36  1  0.077069  0.313906  0.839571  1
  Si  Si37  1  0.423001  0.313907  0.660431  1
  Si  Si38  1  0.422998  0.186000  0.660482  1
  Si  Si39  1  0.190791  0.022282  0.329905  1
  Si  Si40  1  0.309263  0.022291  0.170148  1
  Si  Si41  1  0.077329  0.018822  0.165184  1
  Si  Si42  1  0.422697  0.018815  0.334917  1
  Si  Si43  1  0.221567  0.082950  0.538404  1
  Si  Si44  1  0.278471  0.082964  0.961663  1
  Si  Si45  1  0.122179  0.083344  0.966700  1
  O  O46  1  0.301847  0.641828  0.080803  1
  O  O47  1  0.198242  0.358099  0.580804  1
  O  O48  1  0.301819  0.358110  0.919168  1
  O  O49  1  0.198245  0.641814  0.419168  1
  Si  Si50  1  0.377867  0.416568  0.533340  1
  O  O51  1  0.401593  0.642789  0.428248  1
  O  O52  1  0.098497  0.357121  0.928204  1
  O  O53  1  0.401587  0.357109  0.571764  1
  O  O54  1  0.098467  0.642797  0.071727  1
  O  O55  1  0.303746  0.564762  0.925102  1
  O  O56  1  0.196373  0.435171  0.425126  1
  O  O57  1  0.303694  0.435181  0.074846  1
  O  O58  1  0.196354  0.564752  0.574869  1
  O  O59  1  0.300748  0.462570  0.879198  1
  O  O60  1  0.199371  0.537364  0.379225  1
  O  O61  1  0.300697  0.537375  0.120749  1
  O  O62  1  0.199353  0.462559  0.620777  1
  O  O63  1  0.376488  0.526052  0.765180  1
  O  O64  1  0.123625  0.473873  0.265195  1
  O  O65  1  0.376474  0.473876  0.234739  1
  O  O66  1  0.123587  0.526052  0.734759  1
  O  O67  1  0.250037  0.531299  0.749994  1
  O  O68  1  0.250051  0.468635  0.249996  1
  O  O69  1  0.404112  0.563695  0.578297  1
  O  O70  1  0.096021  0.436211  0.078285  1
  O  O71  1  0.404061  0.436193  0.421654  1
  O  O72  1  0.095978  0.563715  0.921645  1
  O  O73  1  0.404639  0.460911  0.614444  1
  O  O74  1  0.095503  0.538995  0.114427  1
  O  O75  1  0.404603  0.538981  0.385518  1
  O  O76  1  0.095420  0.460929  0.885500  1
  Si  Si77  1  0.122216  0.583349  0.033297  1
  O  O78  1  0.000076  0.479421  0.187781  1
  O  O79  1  0.200294  0.580447  0.035096  1
  O  O80  1  0.299791  0.419506  0.535233  1
  O  O81  1  0.200284  0.419539  0.964686  1
  O  O82  1  0.299796  0.580412  0.464831  1
  Si  Si83  1  0.309282  0.522302  0.829863  1
  Si  Si84  1  0.190825  0.477633  0.329893  1
  Si  Si85  1  0.309261  0.477644  0.170073  1
  Si  Si86  1  0.190805  0.522292  0.670105  1
  Si  Si87  1  0.422728  0.518804  0.665121  1
  Si  Si88  1  0.077405  0.481105  0.165107  1
  Si  Si89  1  0.422692  0.481087  0.334838  1
  Si  Si90  1  0.077346  0.518827  0.834825  1
  Si  Si91  1  0.278510  0.582974  0.038355  1
  Si  Si92  1  0.221574  0.416963  0.538399  1
  Si  Si93  1  0.278501  0.416978  0.961566  1
  Si  Si94  1  0.221578  0.582960  0.461609  1
  Si  Si95  1  0.377872  0.583328  0.466646  1
  Si  Si96  1  0.122209  0.416588  0.966595  1
  O  O97  1  0.000010  0.520526  0.812190  1
  O  O98  1  0.301815  0.858103  0.080849  1
  O  O99  1  0.198232  0.858088  0.419194  1
  O  O100  1  0.376247  0.675993  0.240235  1
  O  O101  1  0.376238  0.823928  0.240253  1
  O  O102  1  0.123826  0.823915  0.259790  1
  O  O103  1  0.123831  0.675979  0.259749  1
  O  O104  1  0.308751  0.749961  0.140540  1
  O  O105  1  0.191315  0.749946  0.359474  1
  O  O106  1  0.250032  0.823145  0.250018  1
  O  O107  1  0.401579  0.857119  0.428283  1
  O  O108  1  0.098458  0.857124  0.071784  1
  O  O109  1  0.000031  0.677417  0.185617  1
  O  O110  1  0.413841  0.749958  0.369829  1
  O  O111  1  0.086209  0.749955  0.130200  1
  O  O112  1  0.303661  0.935173  0.925172  1
  O  O113  1  0.196334  0.935162  0.574873  1
  O  O114  1  0.199341  0.962547  0.379225  1
  O  O115  1  0.300718  0.962558  0.120821  1
  O  O116  1  0.376432  0.973871  0.765287  1
  O  O117  1  0.123575  0.973872  0.734786  1
  O  O118  1  0.250003  0.968614  0.750019  1
  O  O119  1  0.404047  0.936198  0.578384  1
  O  O120  1  0.095992  0.936211  0.921704  1
  O  O121  1  0.095403  0.960929  0.114492  1
  O  O122  1  0.404606  0.960923  0.385597  1
  O  O123  1  0.250039  0.676764  0.249986  1
  Si  Si124  1  0.122181  0.916586  0.033392  1
  O  O125  1  0.200257  0.919518  0.035313  1
  O  O126  1  0.299770  0.919499  0.464818  1
  Si  Si127  1  0.310729  0.686097  0.172632  1
  Si  Si128  1  0.310720  0.813823  0.172652  1
  Si  Si129  1  0.189347  0.813810  0.327380  1
  Si  Si130  1  0.189349  0.686085  0.327348  1
  Si  Si131  1  0.423004  0.686006  0.339613  1
  Si  Si132  1  0.422997  0.813913  0.339628  1
  Si  Si133  1  0.077056  0.813906  0.160428  1
  Si  Si134  1  0.077058  0.685999  0.160394  1
  Si  Si135  1  0.309213  0.977633  0.829940  1
  Si  Si136  1  0.190785  0.977623  0.670107  1
  Si  Si137  1  0.422668  0.981088  0.665213  1
  Si  Si138  1  0.077363  0.981103  0.834886  1
  Si  Si139  1  0.278474  0.916966  0.038451  1
  Si  Si140  1  0.221555  0.916953  0.461612  1
  Si  Si141  1  0.377847  0.916575  0.466701  1
  O  O142  1  0.000028  0.822487  0.185641  1
  O  O143  1  0.000028  0.979423  0.812255  1
  O  O144  1  0.499999  0.979396  0.687881  1
  O  O145  1  0.801799  0.141812  0.580885  1
  O  O146  1  0.698220  0.141808  0.919254  1
  O  O147  1  0.876224  0.175993  0.740267  1
  O  O148  1  0.876229  0.323919  0.740280  1
  O  O149  1  0.623819  0.323927  0.759880  1
  O  O150  1  0.623818  0.175994  0.759857  1
  O  O151  1  0.808718  0.249955  0.640589  1
  O  O152  1  0.691316  0.249954  0.859566  1
  O  O153  1  0.750022  0.176765  0.750081  1
  O  O154  1  0.750022  0.323160  0.750088  1
  O  O155  1  0.901577  0.142797  0.928283  1
  O  O156  1  0.598472  0.142798  0.571837  1
  O  O157  1  0.500026  0.322499  0.685657  1
  O  O158  1  0.500028  0.177422  0.685685  1
  O  O159  1  0.913855  0.249957  0.869842  1
  O  O160  1  0.586213  0.249963  0.630287  1
  O  O161  1  0.803670  0.064746  0.425191  1
  O  O162  1  0.696336  0.064731  0.074923  1
  O  O163  1  0.699343  0.037350  0.879277  1
  O  O164  1  0.800711  0.037353  0.620841  1
  O  O165  1  0.876438  0.026049  0.265283  1
  O  O166  1  0.623581  0.026032  0.234839  1
  O  O167  1  0.750008  0.031280  0.250053  1
  O  O168  1  0.904054  0.063714  0.078376  1
  O  O169  1  0.595985  0.063710  0.421748  1
  O  O170  1  0.595405  0.038992  0.614539  1
  O  O171  1  0.904599  0.038995  0.885589  1
  Si  Si172  1  0.622182  0.083333  0.533433  1
  O  O173  1  0.700258  0.080391  0.535327  1
  O  O174  1  0.799769  0.080411  0.964853  1
  Si  Si175  1  0.810695  0.186091  0.672690  1
  Si  Si176  1  0.810699  0.313818  0.672708  1
  Si  Si177  1  0.689344  0.313819  0.827467  1
  Si  Si178  1  0.689339  0.186092  0.827454  1
  Si  Si179  1  0.922996  0.186003  0.839628  1
  Si  Si180  1  0.923011  0.313910  0.839627  1
  Si  Si181  1  0.577061  0.313915  0.660501  1
  Si  Si182  1  0.577057  0.186008  0.660486  1
  Si  Si183  1  0.809230  0.022284  0.329960  1
  Si  Si184  1  0.690786  0.022269  0.170154  1
  Si  Si185  1  0.922666  0.018821  0.165203  1
  Si  Si186  1  0.577361  0.018815  0.334931  1
  Si  Si187  1  0.778475  0.082948  0.538472  1
  Si  Si188  1  0.721552  0.082946  0.961662  1
  Si  Si189  1  0.877846  0.083341  0.966702  1
  O  O190  1  0.500030  0.020499  0.312268  1
  O  O191  1  0.999999  0.020507  0.187868  1
  O  O192  1  0.698240  0.641797  0.080948  1
  O  O193  1  0.801820  0.358098  0.580902  1
  O  O194  1  0.698248  0.358082  0.919303  1
  O  O195  1  0.801840  0.641823  0.419280  1
  O  O196  1  0.598469  0.642790  0.428329  1
  O  O197  1  0.901617  0.357122  0.928285  1
  O  O198  1  0.598486  0.357116  0.571845  1
  O  O199  1  0.901567  0.642795  0.071824  1
  O  O200  1  0.696319  0.564722  0.925293  1
  O  O201  1  0.803802  0.435179  0.425255  1
  O  O202  1  0.696410  0.435140  0.075028  1
  O  O203  1  0.803640  0.564757  0.574991  1
  O  O204  1  0.699346  0.462533  0.879377  1
  O  O205  1  0.800792  0.537366  0.379336  1
  O  O206  1  0.699384  0.537336  0.120937  1
  O  O207  1  0.800641  0.462557  0.620894  1
  O  O208  1  0.623581  0.526023  0.765345  1
  O  O209  1  0.876534  0.473870  0.265292  1
  O  O210  1  0.623634  0.473841  0.234906  1
  O  O211  1  0.876430  0.526048  0.734844  1
  O  O212  1  0.750003  0.531288  0.750157  1
  O  O213  1  0.750088  0.468616  0.250155  1
  O  O214  1  0.596052  0.563701  0.578408  1
  O  O215  1  0.904105  0.436206  0.078372  1
  O  O216  1  0.595936  0.436199  0.421766  1
  O  O217  1  0.904068  0.563713  0.921734  1
  O  O218  1  0.595519  0.460917  0.614543  1
  O  O219  1  0.904628  0.538990  0.114516  1
  O  O220  1  0.595413  0.538984  0.385614  1
  O  O221  1  0.904616  0.460929  0.885586  1
  O  O222  1  0.500028  0.479397  0.312197  1
  Si  Si223  1  0.877857  0.583333  0.033412  1
  O  O224  1  0.799782  0.580393  0.035283  1
  O  O225  1  0.700287  0.419480  0.535101  1
  O  O226  1  0.799807  0.419487  0.964876  1
  O  O227  1  0.700285  0.580395  0.464716  1
  Si  Si228  1  0.690779  0.522265  0.830052  1
  Si  Si229  1  0.809338  0.477633  0.330006  1
  Si  Si230  1  0.690855  0.477601  0.170262  1
  Si  Si231  1  0.809204  0.522290  0.670211  1
  Si  Si232  1  0.577397  0.518807  0.665208  1
  Si  Si233  1  0.922738  0.481100  0.165185  1
  Si  Si234  1  0.577354  0.481088  0.334920  1
  Si  Si235  1  0.922682  0.518825  0.834898  1
  Si  Si236  1  0.721566  0.582933  0.038538  1
  Si  Si237  1  0.778504  0.416958  0.538468  1
  Si  Si238  1  0.721590  0.416938  0.961740  1
  Si  Si239  1  0.778503  0.582957  0.461680  1
  Si  Si240  1  0.622210  0.583327  0.466702  1
  Si  Si241  1  0.877884  0.416577  0.966706  1
  Si  Si242  1  0.622211  0.416567  0.533397  1
  O  O243  1  0.500057  0.520489  0.687793  1
  O  O244  1  0.698234  0.858082  0.080876  1
  O  O245  1  0.801825  0.858099  0.419243  1
  O  O246  1  0.623837  0.675990  0.240328  1
  O  O247  1  0.623829  0.823923  0.240299  1
  O  O248  1  0.876237  0.823929  0.259824  1
  O  O249  1  0.876250  0.675995  0.259856  1
  O  O250  1  0.691315  0.749948  0.140600  1
  O  O251  1  0.808752  0.749963  0.359547  1
  O  O252  1  0.750045  0.676765  0.250099  1
  O  O253  1  0.750032  0.823149  0.250067  1
  O  O254  1  0.598457  0.857123  0.428317  1
  O  O255  1  0.901585  0.857122  0.071802  1
  O  O256  1  0.500038  0.677427  0.314446  1
  O  O257  1  0.500029  0.822494  0.314444  1
  Si  Si258  1  0.877849  0.916579  0.033395  1
  O  O259  1  0.586213  0.749961  0.369886  1
  O  O260  1  0.913838  0.749957  0.130250  1
  O  O261  1  0.696334  0.935154  0.925181  1
  O  O262  1  0.803708  0.935161  0.574933  1
  O  O263  1  0.800682  0.962552  0.379289  1
  O  O264  1  0.699343  0.962537  0.120827  1
  O  O265  1  0.623572  0.973869  0.765290  1
  O  O266  1  0.876461  0.973863  0.734846  1
  O  O267  1  0.750015  0.968614  0.750052  1
  O  O268  1  0.595961  0.936206  0.578403  1
  O  O269  1  0.904079  0.936212  0.921737  1
  O  O270  1  0.904579  0.960928  0.114521  1
  O  O271  1  0.595450  0.960925  0.385621  1
  O  O272  1  0.799772  0.919491  0.035221  1
  O  O273  1  0.700265  0.919490  0.464905  1
  Si  Si274  1  0.689358  0.686088  0.172735  1
  Si  Si275  1  0.689347  0.813813  0.172703  1
  Si  Si276  1  0.810721  0.813824  0.327430  1
  Si  Si277  1  0.810732  0.686097  0.327462  1
  Si  Si278  1  0.577064  0.686007  0.339682  1
  Si  Si279  1  0.577057  0.813913  0.339659  1
  Si  Si280  1  0.922997  0.813911  0.160450  1
  Si  Si281  1  0.922997  0.686004  0.160464  1
  Si  Si282  1  0.690788  0.977619  0.829950  1
  Si  Si283  1  0.809251  0.977620  0.670172  1
  Si  Si284  1  0.577332  0.981096  0.665224  1
  Si  Si285  1  0.922696  0.981103  0.834914  1
  Si  Si286  1  0.721556  0.916943  0.038441  1
  Si  Si287  1  0.778482  0.916953  0.461674  1
  Si  Si288  1  0.622188  0.916576  0.466741  1
