# generated using pymatgen
data_SiO2
_symmetry_space_group_name_H-M   'P 1'
_cell_length_a   12.70194392
_cell_length_b   12.70191421
_cell_length_c   13.04642943
_cell_angle_alpha   90.00000000
_cell_angle_beta   90.00000000
_cell_angle_gamma   90.00000000
_symmetry_Int_Tables_number   1
_chemical_formula_structural   SiO2
_chemical_formula_sum   'Si32 O64'
_cell_volume   2104.89790361
_cell_formula_units_Z   32
loop_
 _symmetry_equiv_pos_site_id
 _symmetry_equiv_pos_as_xyz
  1  'x, y, z'
loop_
 _atom_site_type_symbol
 _atom_site_label
 _atom_site_symmetry_multiplicity
 _atom_site_fract_x
 _atom_site_fract_y
 _atom_site_fract_z
 _atom_site_occupancy
  Si  Si1  1  0.000069  0.122673  0.117972  1
  O  O2  1  0.170911  0.100470  0.331040  1
  O  O3  1  0.500062  0.142998  0.138006  1
  O  O4  1  0.701888  0.176822  0.192371  1
  O  O5  1  0.298239  0.176812  0.192363  1
  O  O6  1  0.177008  0.298061  0.307684  1
  O  O7  1  0.823151  0.298066  0.307669  1
  O  O8  1  0.000072  0.144083  0.000038  1
  Si  Si9  1  0.810225  0.189723  0.250029  1
  O  O10  1  0.899477  0.170684  0.169037  1
  O  O11  1  0.100647  0.170704  0.169049  1
  Si  Si12  1  0.621112  0.121624  0.117956  1
  Si  Si13  1  0.379015  0.121617  0.117948  1
  Si  Si14  1  0.189911  0.189720  0.250033  1
  O  O15  1  0.829222  0.100477  0.331040  1
  O  O16  1  0.358068  0.143471  0.000026  1
  O  O17  1  0.642066  0.143478  0.000035  1
  O  O18  1  0.000079  0.362393  0.369414  1
  O  O19  1  0.000067  0.362338  0.630625  1
  O  O20  1  0.143679  0.357857  0.500025  1
  O  O21  1  0.856468  0.357860  0.500012  1
  O  O22  1  0.143181  0.499830  0.638025  1
  Si  Si23  1  0.121818  0.378832  0.382109  1
  Si  Si24  1  0.878340  0.378834  0.382097  1
  Si  Si25  1  0.121807  0.378785  0.617947  1
  Si  Si26  1  0.878329  0.378789  0.617936  1
  O  O27  1  0.143196  0.499884  0.362074  1
  O  O28  1  0.856956  0.499835  0.638009  1
  O  O29  1  0.856970  0.499887  0.362060  1
  Si  Si30  1  0.000068  0.122664  0.882105  1
  O  O31  1  0.500073  0.142970  0.862054  1
  O  O32  1  0.176998  0.298002  0.692358  1
  O  O33  1  0.823133  0.298012  0.692349  1
  O  O34  1  0.701897  0.176792  0.807699  1
  O  O35  1  0.298247  0.176777  0.807686  1
  O  O36  1  0.899490  0.170694  0.831027  1
  O  O37  1  0.100657  0.170673  0.831029  1
  Si  Si38  1  0.621121  0.121600  0.882117  1
  Si  Si39  1  0.379024  0.121594  0.882109  1
  Si  Si40  1  0.810230  0.189690  0.750033  1
  Si  Si41  1  0.189910  0.189675  0.750029  1
  O  O42  1  0.170902  0.100406  0.669049  1
  O  O43  1  0.829234  0.100417  0.669057  1
  Si  Si44  1  0.000071  0.877030  0.117981  1
  O  O45  1  0.170900  0.899301  0.331026  1
  O  O46  1  0.500069  0.856770  0.138029  1
  O  O47  1  0.298247  0.822944  0.192386  1
  O  O48  1  0.701889  0.822949  0.192397  1
  O  O49  1  0.823138  0.701710  0.307729  1
  O  O50  1  0.177025  0.701708  0.307740  1
  O  O51  1  0.358074  0.856261  0.000049  1
  O  O52  1  0.100651  0.829005  0.169060  1
  O  O53  1  0.899480  0.829029  0.169058  1
  Si  Si54  1  0.379020  0.878139  0.117967  1
  Si  Si55  1  0.621117  0.878145  0.117977  1
  Si  Si56  1  0.810224  0.810036  0.250056  1
  Si  Si57  1  0.189917  0.810029  0.250052  1
  O  O58  1  0.000066  0.855609  0.000048  1
  O  O59  1  0.637559  0.999886  0.130657  1
  O  O60  1  0.829234  0.899305  0.331035  1
  O  O61  1  0.362572  0.999878  0.130645  1
  O  O62  1  0.000084  0.999852  0.130802  1
  O  O63  1  0.642075  0.856272  0.000060  1
  O  O64  1  0.000083  0.637382  0.369453  1
  O  O65  1  0.000071  0.637328  0.630677  1
  O  O66  1  0.856477  0.641861  0.500058  1
  O  O67  1  0.143680  0.641857  0.500073  1
  Si  Si68  1  0.877244  0.999890  0.382112  1
  Si  Si69  1  0.121810  0.620883  0.617988  1
  Si  Si70  1  0.878332  0.620888  0.617975  1
  O  O71  1  0.000066  0.999817  0.630803  1
  Si  Si72  1  0.878344  0.620932  0.382135  1
  Si  Si73  1  0.122887  0.999882  0.382108  1
  O  O74  1  0.144301  0.999846  0.500041  1
  Si  Si75  1  0.877244  0.999832  0.617980  1
  Si  Si76  1  0.121821  0.620930  0.382148  1
  Si  Si77  1  0.122887  0.999821  0.617975  1
  O  O78  1  0.855829  0.999862  0.500046  1
  O  O79  1  0.000065  0.999898  0.369284  1
  O  O80  1  0.362584  0.999853  0.869430  1
  O  O81  1  0.170909  0.899236  0.669047  1
  Si  Si82  1  0.000071  0.877021  0.882114  1
  O  O83  1  0.500080  0.856743  0.862081  1
  O  O84  1  0.823129  0.701655  0.692394  1
  O  O85  1  0.177007  0.701649  0.692415  1
  O  O86  1  0.298259  0.822913  0.807713  1
  O  O87  1  0.701899  0.822913  0.807727  1
  O  O88  1  0.000058  0.999842  0.869284  1
  O  O89  1  0.100667  0.829014  0.831051  1
  O  O90  1  0.899494  0.828995  0.831034  1
  Si  Si91  1  0.379030  0.878115  0.882129  1
  Si  Si92  1  0.621128  0.878122  0.882137  1
  Si  Si93  1  0.189922  0.809993  0.750058  1
  Si  Si94  1  0.810224  0.809993  0.750053  1
  O  O95  1  0.829223  0.899246  0.669051  1
  O  O96  1  0.637572  0.999860  0.869437  1
