# generated using pymatgen
data_SiO2
_symmetry_space_group_name_H-M   'P 1'
_cell_length_a   7.38169463
_cell_length_b   15.75842742
_cell_length_c   5.05429154
_cell_angle_alpha   90.00000000
_cell_angle_beta   90.00000000
_cell_angle_gamma   90.00000000
_symmetry_Int_Tables_number   1
_chemical_formula_structural   SiO2
_chemical_formula_sum   'Si12 O24'
_cell_volume   587.934898258
_cell_formula_units_Z   12
loop_
 _symmetry_equiv_pos_site_id
 _symmetry_equiv_pos_as_xyz
  1  'x, y, z'
loop_
 _atom_site_type_symbol
 _atom_site_label
 _atom_site_symmetry_multiplicity
 _atom_site_fract_x
 _atom_site_fract_y
 _atom_site_fract_z
 _atom_site_occupancy
  O  O1  1  0.253779  0.258279  0.464401  1
  O  O2  1  0.753816  0.758260  0.464568  1
  O  O3  1  0.748240  0.258513  0.468118  1
  O  O4  1  0.248203  0.758496  0.468275  1
  O  O5  1  0.251752  0.741411  0.968275  1
  O  O6  1  0.751713  0.241394  0.968119  1
  O  O7  1  0.746138  0.741648  0.964568  1
  O  O8  1  0.246174  0.241628  0.964401  1
  O  O9  1  0.329824  0.115310  0.255738  1
  O  O10  1  0.829824  0.615306  0.255760  1
  O  O11  1  0.670415  0.115392  0.261658  1
  O  O12  1  0.170416  0.615388  0.261681  1
  O  O13  1  0.329538  0.884519  0.761680  1
  O  O14  1  0.829537  0.384515  0.761658  1
  O  O15  1  0.670129  0.884602  0.755760  1
  O  O16  1  0.170129  0.384597  0.755738  1
  O  O17  1  0.000112  0.176526  0.246971  1
  O  O18  1  0.500112  0.676527  0.247153  1
  O  O19  1  0.999842  0.823380  0.747153  1
  O  O20  1  0.499841  0.323382  0.746971  1
  O  O21  1  0.502055  0.990251  0.050307  1
  O  O22  1  0.002055  0.490247  0.050306  1
  O  O23  1  0.497898  0.009660  0.550306  1
  O  O24  1  0.997898  0.509656  0.550308  1
  Si  Si25  1  0.208313  0.196366  0.233182  1
  Si  Si26  1  0.708312  0.696365  0.233322  1
  Si  Si27  1  0.791832  0.196402  0.236640  1
  Si  Si28  1  0.291833  0.696401  0.236775  1
  Si  Si29  1  0.208121  0.803506  0.736775  1
  Si  Si30  1  0.708121  0.303505  0.736640  1
  Si  Si31  1  0.791641  0.803543  0.733322  1
  Si  Si32  1  0.291640  0.303541  0.733182  1
  Si  Si33  1  0.500022  0.056623  0.278899  1
  Si  Si34  1  0.000022  0.556619  0.278902  1
  Si  Si35  1  0.499931  0.943289  0.778901  1
  Si  Si36  1  0.999931  0.443284  0.778899  1
