# generated using pymatgen
data_SiO2
_symmetry_space_group_name_H-M   'P 1'
_cell_length_a   13.20293025
_cell_length_b   13.18796789
_cell_length_c   12.84791050
_cell_angle_alpha   90.00000000
_cell_angle_beta   90.00000000
_cell_angle_gamma   120.00000000
_symmetry_Int_Tables_number   1
_chemical_formula_structural   SiO2
_chemical_formula_sum   'Si28 O56'
_cell_volume   1937.36452979
_cell_formula_units_Z   28
loop_
 _symmetry_equiv_pos_site_id
 _symmetry_equiv_pos_as_xyz
  1  'x, y, z'
loop_
 _atom_site_type_symbol
 _atom_site_label
 _atom_site_symmetry_multiplicity
 _atom_site_fract_x
 _atom_site_fract_y
 _atom_site_fract_z
 _atom_site_occupancy
  O  O1  1  0.430060  0.230953  0.316662  1
  O  O2  1  0.231890  0.428367  0.317088  1
  O  O3  1  0.198922  0.768910  0.316813  1
  O  O4  1  0.407479  0.406477  0.237664  1
  O  O5  1  0.350510  0.563870  0.167753  1
  O  O6  1  0.214890  0.649781  0.167104  1
  O  O7  1  0.436260  0.785340  0.166188  1
  Si  Si8  1  0.333622  0.665823  0.121354  1
  Si  Si9  1  0.491439  0.355714  0.261804  1
  Si  Si10  1  0.356670  0.490306  0.262483  1
  Si  Si11  1  0.135533  0.644127  0.261982  1
  O  O12  1  0.000873  0.593379  0.237812  1
  O  O13  1  0.332606  0.662510  0.000024  1
  O  O14  1  0.442919  0.585157  0.657703  1
  O  O15  1  0.143596  0.557612  0.658239  1
  O  O16  1  0.416075  0.856802  0.658896  1
  O  O17  1  0.443032  0.585158  0.342324  1
  O  O18  1  0.143703  0.557612  0.341828  1
  O  O19  1  0.416198  0.856796  0.341159  1
  O  O20  1  0.345225  0.999966  0.361861  1
  O  O21  1  0.345098  0.999966  0.638146  1
  Si  Si22  1  0.441567  0.133654  0.379516  1
  O  O23  1  0.292091  0.840558  0.500013  1
  O  O24  1  0.159934  0.449156  0.500050  1
  O  O25  1  0.451416  0.159356  0.500013  1
  Si  Si26  1  0.307776  0.866216  0.379514  1
  Si  Si27  1  0.134249  0.439453  0.379604  1
  Si  Si28  1  0.307662  0.866214  0.620514  1
  Si  Si29  1  0.134149  0.439450  0.620480  1
  Si  Si30  1  0.441454  0.133655  0.620511  1
  O  O31  1  0.000677  0.343032  0.361975  1
  O  O32  1  0.000572  0.343034  0.638095  1
  O  O33  1  0.429943  0.230959  0.683356  1
  O  O34  1  0.231773  0.428363  0.683022  1
  O  O35  1  0.198798  0.768904  0.683205  1
  O  O36  1  0.407381  0.406482  0.762397  1
  O  O37  1  0.350431  0.563899  0.832291  1
  O  O38  1  0.214794  0.649807  0.832959  1
  O  O39  1  0.436160  0.785352  0.833851  1
  Si  Si40  1  0.491325  0.355702  0.738252  1
  Si  Si41  1  0.356581  0.490319  0.737575  1
  Si  Si42  1  0.135432  0.644139  0.738074  1
  Si  Si43  1  0.333531  0.665839  0.878696  1
  O  O44  1  0.000770  0.593374  0.762249  1
  O  O45  1  0.770065  0.197407  0.315720  1
  O  O46  1  0.803352  0.571353  0.317130  1
  O  O47  1  0.572332  0.802237  0.315608  1
  O  O48  1  0.594000  0.999870  0.236094  1
  Si  Si49  1  0.510439  0.865139  0.260819  1
  O  O50  1  0.565200  0.350084  0.166945  1
  O  O51  1  0.651012  0.214465  0.166324  1
  O  O52  1  0.786671  0.435933  0.167775  1
  Si  Si53  1  0.667942  0.333991  0.121354  1
  Si  Si54  1  0.645316  0.134615  0.260958  1
  Si  Si55  1  0.866311  0.509465  0.262520  1
  O  O56  1  0.670470  0.337143  0.000024  1
  O  O57  1  0.586021  0.442130  0.341704  1
  O  O58  1  0.559399  0.142981  0.341279  1
  O  O59  1  0.857839  0.414553  0.342328  1
  O  O60  1  0.585913  0.442130  0.658363  1
  O  O61  1  0.559270  0.142975  0.658775  1
  O  O62  1  0.857727  0.414554  0.657698  1
  O  O63  1  0.657354  0.656643  0.362015  1
  Si  Si64  1  0.867008  0.305473  0.379566  1
  O  O65  1  0.657246  0.656640  0.638055  1
  O  O66  1  0.552135  0.711336  0.500011  1
  O  O67  1  0.710484  0.550385  0.500050  1
  O  O68  1  0.840881  0.288401  0.500011  1
  Si  Si69  1  0.561197  0.694193  0.379569  1
  Si  Si70  1  0.561096  0.694192  0.620467  1
  Si  Si71  1  0.694499  0.560215  0.620480  1
  Si  Si72  1  0.866908  0.305474  0.620470  1
  Si  Si73  1  0.694597  0.560213  0.379604  1
  O  O74  1  0.769944  0.197404  0.684294  1
  O  O75  1  0.803239  0.571357  0.682981  1
  O  O76  1  0.572213  0.802240  0.684406  1
  O  O77  1  0.593889  0.999869  0.763933  1
  Si  Si78  1  0.667835  0.333975  0.878695  1
  O  O79  1  0.565077  0.350058  0.833117  1
  O  O80  1  0.650900  0.214452  0.833714  1
  O  O81  1  0.786562  0.435904  0.832269  1
  Si  Si82  1  0.645204  0.134614  0.739071  1
  Si  Si83  1  0.866209  0.509451  0.737538  1
  Si  Si84  1  0.510328  0.865140  0.739210  1
