# generated using pymatgen
data_SiO2
_symmetry_space_group_name_H-M   'P 1'
_cell_length_a   6.71414898
_cell_length_b   16.91254890
_cell_length_c   7.77198770
_cell_angle_alpha   90.00000000
_cell_angle_beta   95.82700000
_cell_angle_gamma   90.00000000
_symmetry_Int_Tables_number   1
_chemical_formula_structural   SiO2
_chemical_formula_sum   'Si16 O32'
_cell_volume   877.975337771
_cell_formula_units_Z   16
loop_
 _symmetry_equiv_pos_site_id
 _symmetry_equiv_pos_as_xyz
  1  'x, y, z'
loop_
 _atom_site_type_symbol
 _atom_site_label
 _atom_site_symmetry_multiplicity
 _atom_site_fract_x
 _atom_site_fract_y
 _atom_site_fract_z
 _atom_site_occupancy
  O  O1  1  0.380994  0.098200  0.021158  1
  O  O2  1  0.620685  0.598668  0.978569  1
  O  O3  1  0.620759  0.901159  0.978454  1
  O  O4  1  0.380925  0.401627  0.021272  1
  O  O5  1  0.101678  0.075603  0.768999  1
  O  O6  1  0.898262  0.576734  0.232396  1
  O  O7  1  0.898323  0.923095  0.232287  1
  O  O8  1  0.101619  0.424226  0.769110  1
  O  O9  1  0.426581  0.999572  0.784830  1
  O  O10  1  0.574825  0.500058  0.214607  1
  O  O11  1  0.574877  0.999767  0.214489  1
  O  O12  1  0.426522  0.500253  0.784949  1
  O  O13  1  0.434717  0.139816  0.691127  1
  O  O14  1  0.562934  0.640032  0.308420  1
  O  O15  1  0.562980  0.859789  0.308297  1
  O  O16  1  0.434665  0.360006  0.691242  1
  O  O17  1  0.213819  0.017114  0.250685  1
  O  O18  1  0.787348  0.518406  0.746136  1
  O  O19  1  0.787412  0.981431  0.746016  1
  O  O20  1  0.213758  0.482726  0.250799  1
  O  O21  1  0.464205  0.124318  0.364990  1
  O  O22  1  0.536194  0.625226  0.635442  1
  O  O23  1  0.536285  0.874610  0.635318  1
  O  O24  1  0.464112  0.375519  0.365111  1
  O  O25  1  0.769385  0.112459  0.584611  1
  O  O26  1  0.229789  0.611575  0.419242  1
  O  O27  1  0.229857  0.888270  0.419138  1
  O  O28  1  0.769318  0.387385  0.584716  1
  O  O29  1  0.601529  0.249921  0.526095  1
  O  O30  1  0.395073  0.749921  0.473062  1
  O  O31  1  0.999679  0.002000  0.497226  1
  O  O32  1  0.999626  0.497840  0.497354  1
  Si  Si33  1  0.335074  0.083206  0.819310  1
  Si  Si34  1  0.665007  0.583964  0.180652  1
  Si  Si35  1  0.665065  0.915861  0.180538  1
  Si  Si36  1  0.335015  0.416619  0.819421  1
  Si  Si37  1  0.407120  0.064543  0.212938  1
  Si  Si38  1  0.594128  0.565133  0.786721  1
  Si  Si39  1  0.594204  0.934698  0.786607  1
  Si  Si40  1  0.407043  0.435289  0.213049  1
  Si  Si41  1  0.567668  0.158666  0.539939  1
  Si  Si42  1  0.430821  0.658700  0.460345  1
  Si  Si43  1  0.430873  0.841135  0.460240  1
  Si  Si44  1  0.567614  0.341169  0.540040  1
  Si  Si45  1  0.913394  0.043517  0.652369  1
  Si  Si46  1  0.086225  0.543243  0.347325  1
  Si  Si47  1  0.086282  0.956596  0.347203  1
  Si  Si48  1  0.913334  0.456321  0.652491  1
