# generated using pymatgen
data_SiO2
_symmetry_space_group_name_H-M   'P 1'
_cell_length_a   17.26295779
_cell_length_b   17.26088769
_cell_length_c   17.26026941
_cell_angle_alpha   90.00000000
_cell_angle_beta   90.00000000
_cell_angle_gamma   90.00000000
_symmetry_Int_Tables_number   1
_chemical_formula_structural   SiO2
_chemical_formula_sum   'Si96 O192'
_cell_volume   5143.1110922
_cell_formula_units_Z   96
loop_
 _symmetry_equiv_pos_site_id
 _symmetry_equiv_pos_as_xyz
  1  'x, y, z'
loop_
 _atom_site_type_symbol
 _atom_site_label
 _atom_site_symmetry_multiplicity
 _atom_site_fract_x
 _atom_site_fract_y
 _atom_site_fract_z
 _atom_site_occupancy
  O  O1  1  0.180793  0.347967  0.060841  1
  O  O2  1  0.348554  0.061917  0.182396  1
  O  O3  1  0.560931  0.180993  0.152513  1
  O  O4  1  0.848531  0.063540  0.319154  1
  O  O5  1  0.593558  0.430712  0.310683  1
  O  O6  1  0.096688  0.431220  0.187384  1
  O  O7  1  0.430431  0.186689  0.098014  1
  O  O8  1  0.311494  0.402094  0.068500  1
  O  O9  1  0.437611  0.317325  0.151093  1
  O  O10  1  0.151624  0.438322  0.317042  1
  O  O11  1  0.816642  0.151643  0.061422  1
  O  O12  1  0.650363  0.438354  0.181635  1
  O  O13  1  0.901449  0.068963  0.188058  1
  O  O14  1  0.403035  0.069090  0.312805  1
  O  O15  1  0.687289  0.096518  0.069042  1
  O  O16  1  0.568135  0.311074  0.096891  1
  O  O17  1  0.303031  0.272305  0.125324  1
  O  O18  1  0.123888  0.302642  0.270134  1
  O  O19  1  0.273022  0.124782  0.304689  1
  O  O20  1  0.624173  0.304258  0.226918  1
  O  O21  1  0.769856  0.124604  0.197767  1
  O  O22  1  0.875415  0.022553  0.053880  1
  O  O23  1  0.553530  0.123257  0.022997  1
  O  O24  1  0.519668  0.446097  0.125194  1
  O  O25  1  0.376341  0.196494  0.228861  1
  O  O26  1  0.228005  0.375972  0.195763  1
  O  O27  1  0.695645  0.228107  0.123965  1
  O  O28  1  0.875304  0.197701  0.269825  1
  O  O29  1  0.725112  0.376708  0.306528  1
  O  O30  1  0.124182  0.477719  0.053659  1
  O  O31  1  0.478969  0.053103  0.127543  1
  O  O32  1  0.447011  0.374208  0.019928  1
  Si  Si33  1  0.253882  0.347814  0.115201  1
  Si  Si34  1  0.348466  0.115891  0.255630  1
  Si  Si35  1  0.615011  0.254220  0.151802  1
  Si  Si36  1  0.846097  0.116989  0.243933  1
  Si  Si37  1  0.863023  0.097139  0.004018  1
  Si  Si38  1  0.504357  0.133612  0.098424  1
  Si  Si39  1  0.595026  0.493027  0.133812  1
  Si  Si40  1  0.384239  0.242982  0.152985  1
  Si  Si41  1  0.152487  0.383132  0.243357  1
  Si  Si42  1  0.743229  0.152531  0.117020  1
  Si  Si43  1  0.650221  0.386152  0.256555  1
  Si  Si44  1  0.134198  0.402503  0.003967  1
  Si  Si45  1  0.403793  0.005855  0.136218  1
  Si  Si46  1  0.493673  0.365513  0.095773  1
  O  O47  1  0.062056  0.182014  0.347128  1
  O  O48  1  0.682689  0.345657  0.440260  1
  O  O49  1  0.819490  0.347409  0.562107  1
  O  O50  1  0.439279  0.182103  0.652475  1
  O  O51  1  0.432904  0.311421  0.597079  1
  O  O52  1  0.310645  0.096572  0.567410  1
  O  O53  1  0.811865  0.401939  0.431890  1
  O  O54  1  0.931411  0.187428  0.400639  1
  O  O55  1  0.317636  0.151428  0.438284  1
  O  O56  1  0.938004  0.317982  0.346947  1
  O  O57  1  0.562519  0.317621  0.652530  1
  O  O58  1  0.181598  0.153109  0.560438  1
  O  O59  1  0.689249  0.402405  0.569155  1
  O  O60  1  0.568625  0.188512  0.596962  1
  O  O61  1  0.068040  0.311938  0.401395  1
  O  O62  1  0.187447  0.097677  0.430982  1
  O  O63  1  0.804080  0.272777  0.374392  1
  O  O64  1  0.696799  0.272827  0.626688  1
  O  O65  1  0.554861  0.372287  0.521461  1
  O  O66  1  0.524302  0.055998  0.626384  1
  O  O67  1  0.374060  0.020430  0.447514  1
  O  O68  1  0.022226  0.445800  0.375615  1
  O  O69  1  0.876841  0.476831  0.554077  1
  O  O70  1  0.053357  0.127176  0.478682  1
  O  O71  1  0.195712  0.227441  0.374708  1
  O  O72  1  0.304850  0.226554  0.624405  1
  O  O73  1  0.478259  0.445745  0.623870  1
  O  O74  1  0.625600  0.475052  0.444362  1
  O  O75  1  0.445190  0.124553  0.523037  1
  O  O76  1  0.946384  0.372163  0.478333  1
  O  O77  1  0.980081  0.052772  0.375054  1
  O  O78  1  0.123707  0.023332  0.554409  1
  Si  Si79  1  0.115049  0.256700  0.345968  1
  Si  Si80  1  0.755317  0.347524  0.386246  1
  Si  Si81  1  0.746168  0.348337  0.616253  1
  Si  Si82  1  0.385864  0.256003  0.652602  1
  Si  Si83  1  0.507404  0.364303  0.596501  1
  Si  Si84  1  0.599327  0.006777  0.637254  1
  Si  Si85  1  0.364360  0.095979  0.493685  1
  Si  Si86  1  0.097070  0.495504  0.363424  1
  Si  Si87  1  0.866287  0.401351  0.504809  1
  Si  Si88  1  0.006260  0.133856  0.402856  1
  Si  Si89  1  0.244058  0.152154  0.385421  1
  Si  Si90  1  0.884797  0.243957  0.345578  1
  Si  Si91  1  0.615293  0.243119  0.653244  1
  Si  Si92  1  0.255229  0.151987  0.613420  1
  Si  Si93  1  0.402806  0.495085  0.634099  1
  Si  Si94  1  0.635356  0.400804  0.495601  1
  Si  Si95  1  0.494796  0.135967  0.597430  1
  Si  Si96  1  0.993347  0.364362  0.402909  1
  Si  Si97  1  0.903665  0.006741  0.367007  1
  Si  Si98  1  0.133833  0.098626  0.504554  1
  O  O99  1  0.940030  0.182043  0.843350  1
  O  O100  1  0.655644  0.061730  0.680601  1
  O  O101  1  0.318159  0.347711  0.938273  1
  O  O102  1  0.156976  0.061056  0.818812  1
  O  O103  1  0.810396  0.093529  0.931119  1
  O  O104  1  0.933132  0.311876  0.901595  1
  O  O105  1  0.597475  0.067253  0.811237  1
  O  O106  1  0.097114  0.065992  0.689952  1
  O  O107  1  0.681797  0.150589  0.939207  1
  O  O108  1  0.848265  0.438496  0.818600  1
  O  O109  1  0.063318  0.320080  0.847101  1
  O  O110  1  0.348583  0.437797  0.680568  1
  O  O111  1  0.067862  0.190970  0.902786  1
  O  O112  1  0.187902  0.402294  0.930485  1
  O  O113  1  0.903184  0.432443  0.688771  1
  O  O114  1  0.403010  0.430496  0.811249  1
  O  O115  1  0.874750  0.304566  0.772465  1
  O  O116  1  0.726869  0.124682  0.804592  1
  O  O117  1  0.196822  0.271394  0.876411  1
  O  O118  1  0.377547  0.303240  0.727786  1
  O  O119  1  0.226869  0.123326  0.693985  1
  O  O120  1  0.025010  0.056979  0.872882  1
  O  O121  1  0.053471  0.374657  0.978339  1
  O  O122  1  0.373731  0.478362  0.946277  1
  O  O123  1  0.806841  0.224977  0.877182  1
  O  O124  1  0.622838  0.195470  0.728093  1
  O  O125  1  0.772127  0.377827  0.696438  1
  O  O126  1  0.125522  0.194340  0.773528  1
  O  O127  1  0.273553  0.373538  0.803145  1
  O  O128  1  0.943263  0.127039  0.974550  1
  O  O129  1  0.979375  0.448010  0.874356  1
  O  O130  1  0.625627  0.019752  0.947455  1
  Si  Si131  1  0.886993  0.254514  0.847056  1
  Si  Si132  1  0.651817  0.114611  0.753275  1
  Si  Si133  1  0.244076  0.346801  0.884587  1
  Si  Si134  1  0.153008  0.112627  0.745298  1
  Si  Si135  1  0.100165  0.007218  0.863384  1
  Si  Si136  1  0.006449  0.367501  0.902535  1
  Si  Si137  1  0.366318  0.403169  0.994267  1
  Si  Si138  1  0.756340  0.150471  0.886730  1
  Si  Si139  1  0.847216  0.386052  0.743928  1
  Si  Si140  1  0.116201  0.245484  0.847690  1
  Si  Si141  1  0.349039  0.383642  0.753893  1
  Si  Si142  1  0.993962  0.137687  0.900329  1
  Si  Si143  1  0.903464  0.493808  0.865715  1
  Si  Si144  1  0.634584  0.095116  0.994066  1
  O  O145  1  0.316202  0.848524  0.059754  1
  O  O146  1  0.152057  0.560243  0.182820  1
  O  O147  1  0.941188  0.684886  0.153855  1
  O  O148  1  0.652159  0.560634  0.316276  1
  O  O149  1  0.928880  0.813821  0.096139  1
  O  O150  1  0.809877  0.592954  0.070309  1
  O  O151  1  0.093592  0.568423  0.311015  1
  O  O152  1  0.596774  0.568040  0.186541  1
  O  O153  1  0.058585  0.816131  0.153537  1
  O  O154  1  0.348773  0.938147  0.319135  1
  O  O155  1  0.681352  0.650568  0.060172  1
  O  O156  1  0.847476  0.938635  0.181729  1
  O  O157  1  0.188436  0.906969  0.070148  1
  O  O158  1  0.070126  0.687853  0.094925  1
  O  O159  1  0.403727  0.931745  0.189391  1
  O  O160  1  0.901856  0.932392  0.312738  1
  O  O161  1  0.193461  0.774622  0.123919  1
  O  O162  1  0.376363  0.803906  0.271363  1
  O  O163  1  0.225052  0.622984  0.307956  1
  O  O164  1  0.876189  0.804554  0.229467  1
  O  O165  1  0.728309  0.623359  0.196292  1
  O  O166  1  0.054987  0.875904  0.024855  1
  O  O167  1  0.021595  0.554412  0.127531  1
  O  O168  1  0.375381  0.977432  0.054955  1
  O  O169  1  0.123838  0.693792  0.226752  1
  O  O170  1  0.273420  0.875891  0.195374  1
  O  O171  1  0.805585  0.725548  0.125200  1
  O  O172  1  0.622327  0.695837  0.269741  1
  O  O173  1  0.770948  0.876843  0.303308  1
  O  O174  1  0.977990  0.946648  0.128141  1
  O  O175  1  0.943407  0.625317  0.025292  1
  O  O176  1  0.622671  0.521716  0.052375  1
  Si  Si177  1  0.242889  0.849831  0.113967  1
  Si  Si178  1  0.150753  0.612792  0.257312  1
  Si  Si179  1  0.886234  0.758772  0.153438  1
  Si  Si180  1  0.652422  0.616223  0.242691  1
  Si  Si181  1  0.002642  0.865376  0.099242  1
  Si  Si182  1  0.096207  0.506299  0.134977  1
  Si  Si183  1  0.363521  0.903244  0.004221  1
  Si  Si184  1  0.113296  0.743015  0.151590  1
  Si  Si185  1  0.348654  0.884650  0.245086  1
  Si  Si186  1  0.755254  0.649383  0.115073  1
  Si  Si187  1  0.846582  0.884632  0.255963  1
  Si  Si188  1  0.903028  0.994446  0.135269  1
  Si  Si189  1  0.996700  0.635558  0.098859  1
  Si  Si190  1  0.633636  0.596941  0.002895  1
  O  O191  1  0.681551  0.843854  0.560474  1
  O  O192  1  0.060324  0.682439  0.653167  1
  O  O193  1  0.439701  0.683684  0.347002  1
  O  O194  1  0.819765  0.848302  0.436770  1
  O  O195  1  0.310881  0.597905  0.434519  1
  O  O196  1  0.431177  0.813320  0.402199  1
  O  O197  1  0.931019  0.686830  0.598682  1
  O  O198  1  0.810718  0.902785  0.566430  1
  O  O199  1  0.940421  0.816269  0.653307  1
  O  O200  1  0.319749  0.652420  0.564121  1
  O  O201  1  0.181603  0.656464  0.440726  1
  O  O202  1  0.560216  0.817566  0.346870  1
  O  O203  1  0.569803  0.688039  0.403617  1
  O  O204  1  0.690092  0.902293  0.432193  1
  O  O205  1  0.190319  0.597024  0.568511  1
  O  O206  1  0.070529  0.811214  0.594818  1
  O  O207  1  0.805161  0.772869  0.624532  1
  O  O208  1  0.695550  0.772785  0.372986  1
  O  O209  1  0.523540  0.555341  0.373647  1
  O  O210  1  0.374580  0.521742  0.553724  1
  O  O211  1  0.555485  0.874767  0.476763  1
  O  O212  1  0.055476  0.624921  0.523780  1
  O  O213  1  0.022500  0.944686  0.627900  1
  O  O214  1  0.874696  0.979708  0.447401  1
  O  O215  1  0.195317  0.726401  0.626511  1
  O  O216  1  0.304613  0.727391  0.375491  1
  O  O217  1  0.446251  0.625966  0.476937  1
  O  O218  1  0.479651  0.947386  0.374604  1
  O  O219  1  0.627190  0.975787  0.556611  1
  O  O220  1  0.979559  0.553374  0.627105  1
  O  O221  1  0.127406  0.524754  0.443557  1
  O  O222  1  0.946259  0.875350  0.523528  1
  Si  Si223  1  0.754741  0.847317  0.612646  1
  Si  Si224  1  0.113444  0.756449  0.651822  1
  Si  Si225  1  0.385322  0.756966  0.346802  1
  Si  Si226  1  0.745582  0.848057  0.383946  1
  Si  Si227  1  0.597329  0.503731  0.363030  1
  Si  Si228  1  0.365650  0.597468  0.507395  1
  Si  Si229  1  0.505125  0.866340  0.401937  1
  Si  Si230  1  0.005221  0.634109  0.598587  1
  Si  Si231  1  0.097058  0.992634  0.635591  1
  Si  Si232  1  0.865284  0.903709  0.493375  1
  Si  Si233  1  0.885450  0.743207  0.654054  1
  Si  Si234  1  0.245529  0.651476  0.616969  1
  Si  Si235  1  0.254573  0.652842  0.388251  1
  Si  Si236  1  0.613494  0.741901  0.345799  1
  Si  Si237  1  0.495996  0.637060  0.401736  1
  Si  Si238  1  0.403863  0.994669  0.367193  1
  Si  Si239  1  0.637209  0.900829  0.506531  1
  Si  Si240  1  0.904152  0.506230  0.635393  1
  Si  Si241  1  0.137318  0.599034  0.494305  1
  Si  Si242  1  0.997571  0.863912  0.598605  1
  O  O243  1  0.561075  0.682428  0.846289  1
  O  O244  1  0.848922  0.562759  0.681790  1
  O  O245  1  0.184109  0.848521  0.941216  1
  O  O246  1  0.346825  0.559641  0.818317  1
  O  O247  1  0.098720  0.932818  0.810960  1
  O  O248  1  0.597304  0.932933  0.690539  1
  O  O249  1  0.312477  0.906235  0.930497  1
  O  O250  1  0.432154  0.689858  0.902673  1
  O  O251  1  0.816451  0.651602  0.939886  1
  O  O252  1  0.652419  0.937058  0.819619  1
  O  O253  1  0.438581  0.819134  0.846286  1
  O  O254  1  0.153701  0.937916  0.681624  1
  O  O255  1  0.402232  0.568228  0.688361  1
  O  O256  1  0.902538  0.568554  0.812887  1
  O  O257  1  0.568636  0.812578  0.900999  1
  O  O258  1  0.687551  0.596680  0.929425  1
  O  O259  1  0.623291  0.803614  0.770414  1
  O  O260  1  0.771570  0.623638  0.803318  1
  O  O261  1  0.305486  0.772271  0.878950  1
  O  O262  1  0.123150  0.805904  0.726812  1
  O  O263  1  0.271164  0.622111  0.697374  1
  O  O264  1  0.874253  0.522327  0.946693  1
  O  O265  1  0.520909  0.946929  0.873781  1
  O  O266  1  0.553638  0.627173  0.977142  1
  O  O267  1  0.695588  0.726826  0.873477  1
  O  O268  1  0.875809  0.697466  0.730019  1
  O  O269  1  0.726283  0.875191  0.694124  1
  O  O270  1  0.373370  0.695240  0.773763  1
  O  O271  1  0.227755  0.874000  0.805004  1
  O  O272  1  0.126489  0.978199  0.945272  1
  O  O273  1  0.444825  0.874915  0.975816  1
  O  O274  1  0.476493  0.554546  0.875032  1
  Si  Si275  1  0.614518  0.756340  0.845620  1
  Si  Si276  1  0.847385  0.616729  0.756472  1
  Si  Si277  1  0.258761  0.847972  0.887084  1
  Si  Si278  1  0.346441  0.613641  0.744686  1
  Si  Si279  1  0.861737  0.596771  0.997245  1
  Si  Si280  1  0.596899  0.993686  0.866804  1
  Si  Si281  1  0.505796  0.636039  0.902267  1
  Si  Si282  1  0.744867  0.651404  0.883620  1
  Si  Si283  1  0.652067  0.884294  0.745144  1
  Si  Si284  1  0.384621  0.745736  0.848163  1
  Si  Si285  1  0.152990  0.885723  0.755679  1
  Si  Si286  1  0.136730  0.904091  0.996463  1
  Si  Si287  1  0.495061  0.866064  0.900944  1
  Si  Si288  1  0.401865  0.503780  0.865526  1
