# generated using pymatgen
data_SiO2
_symmetry_space_group_name_H-M   'P 1'
_cell_length_a   9.46999690
_cell_length_b   9.42625855
_cell_length_c   15.01225698
_cell_angle_alpha   90.00000000
_cell_angle_beta   90.00000000
_cell_angle_gamma   120.00000000
_symmetry_Int_Tables_number   1
_chemical_formula_structural   SiO2
_chemical_formula_sum   'Si24 O48'
_cell_volume   1160.55521203
_cell_formula_units_Z   24
loop_
 _symmetry_equiv_pos_site_id
 _symmetry_equiv_pos_as_xyz
  1  'x, y, z'
loop_
 _atom_site_type_symbol
 _atom_site_label
 _atom_site_symmetry_multiplicity
 _atom_site_fract_x
 _atom_site_fract_y
 _atom_site_fract_z
 _atom_site_occupancy
  O  O1  1  0.812102  0.559847  0.336044  1
  O  O2  1  0.441817  0.253179  0.669814  1
  O  O3  1  0.746366  0.188814  0.002218  1
  O  O4  1  0.557598  0.801563  0.997919  1
  O  O5  1  0.249320  0.441610  0.664582  1
  O  O6  1  0.192408  0.752116  0.332115  1
  O  O7  1  0.189726  0.442768  0.836491  1
  O  O8  1  0.557181  0.739904  0.168796  1
  O  O9  1  0.250577  0.808620  0.502754  1
  O  O10  1  0.441597  0.194036  0.498450  1
  O  O11  1  0.753809  0.561654  0.164806  1
  O  O12  1  0.806105  0.248778  0.831068  1
  O  O13  1  0.022692  0.776293  0.227060  1
  O  O14  1  0.226593  0.246739  0.560248  1
  O  O15  1  0.751408  0.978260  0.893633  1
  O  O16  1  0.767511  0.015894  0.107940  1
  O  O17  1  0.247460  0.230139  0.774774  1
  O  O18  1  0.981223  0.754588  0.441303  1
  O  O19  1  0.980775  0.229512  0.726840  1
  O  O20  1  0.781725  0.758276  0.058340  1
  O  O21  1  0.247158  0.021274  0.394193  1
  O  O22  1  0.231188  0.982483  0.608069  1
  O  O23  1  0.753633  0.770373  0.274026  1
  O  O24  1  0.015811  0.247776  0.940875  1
  O  O25  1  0.649247  0.593850  0.450767  1
  O  O26  1  0.406612  0.053819  0.784135  1
  O  O27  1  0.943331  0.352044  0.117544  1
  O  O28  1  0.588435  0.643690  0.879569  1
  O  O29  1  0.054546  0.405810  0.548984  1
  O  O30  1  0.353916  0.944083  0.213789  1
  O  O31  1  0.350772  0.406853  0.951219  1
  O  O32  1  0.591014  0.942222  0.282604  1
  O  O33  1  0.057664  0.644955  0.619989  1
  O  O34  1  0.412275  0.355257  0.380219  1
  O  O35  1  0.943831  0.590185  0.046867  1
  O  O36  1  0.644872  0.055474  0.713632  1
  O  O37  1  0.837993  0.479690  0.505583  1
  O  O38  1  0.524495  0.356716  0.838068  1
  O  O39  1  0.640182  0.166941  0.170514  1
  O  O40  1  0.479162  0.836023  0.828812  1
  O  O41  1  0.358528  0.520458  0.494491  1
  O  O42  1  0.161246  0.641736  0.162501  1
  O  O43  1  0.166259  0.526144  0.004484  1
  O  O44  1  0.475115  0.640570  0.336849  1
  O  O45  1  0.359956  0.832377  0.670020  1
  O  O46  1  0.520272  0.161331  0.329071  1
  O  O47  1  0.640700  0.481409  0.995711  1
  O  O48  1  0.833440  0.359124  0.663285  1
  Si  Si49  1  0.812652  0.591651  0.438269  1
  Si  Si50  1  0.410484  0.223142  0.772605  1
  Si  Si51  1  0.774817  0.187937  0.105230  1
  Si  Si52  1  0.589692  0.808499  0.896005  1
  Si  Si53  1  0.220859  0.409746  0.561977  1
  Si  Si54  1  0.189691  0.780321  0.229838  1
  Si  Si55  1  0.186573  0.411449  0.939594  1
  Si  Si56  1  0.588496  0.773339  0.270973  1
  Si  Si57  1  0.224408  0.811581  0.605688  1
  Si  Si58  1  0.410299  0.189851  0.396017  1
  Si  Si59  1  0.780603  0.594332  0.062397  1
  Si  Si60  1  0.810783  0.223005  0.728026  1
  Si  Si61  1  0.472122  0.534421  0.414713  1
  Si  Si62  1  0.465891  0.934532  0.748323  1
  Si  Si63  1  0.062890  0.530521  0.081907  1
  Si  Si64  1  0.528333  0.465204  0.914966  1
  Si  Si65  1  0.936760  0.465126  0.585354  1
  Si  Si66  1  0.532191  0.062934  0.248126  1
  Si  Si67  1  0.836398  0.664817  0.250253  1
  Si  Si68  1  0.337788  0.171368  0.584320  1
  Si  Si69  1  0.827906  0.166369  0.916472  1
  Si  Si70  1  0.663166  0.821852  0.083267  1
  Si  Si71  1  0.168121  0.338554  0.750883  1
  Si  Si72  1  0.168713  0.832987  0.417939  1
