# generated using pymatgen
data_SiO2
_symmetry_space_group_name_H-M   'P 1'
_cell_length_a   22.42065516
_cell_length_b   13.60370948
_cell_length_c   12.42132499
_cell_angle_alpha   90.00000000
_cell_angle_beta   69.47900000
_cell_angle_gamma   90.00000000
_symmetry_Int_Tables_number   1
_chemical_formula_structural   SiO2
_chemical_formula_sum   'Si56 O112'
_cell_volume   3548.14738122
_cell_formula_units_Z   56
loop_
 _symmetry_equiv_pos_site_id
 _symmetry_equiv_pos_as_xyz
  1  'x, y, z'
loop_
 _atom_site_type_symbol
 _atom_site_label
 _atom_site_symmetry_multiplicity
 _atom_site_fract_x
 _atom_site_fract_y
 _atom_site_fract_z
 _atom_site_occupancy
  Si  Si1  1  0.149303  0.193623  0.877854  1
  O  O2  1  0.120846  0.168956  0.385438  1
  O  O3  1  0.078119  0.135002  0.609370  1
  O  O4  1  0.218129  0.133859  0.195608  1
  O  O5  1  0.281877  0.365965  0.804588  1
  O  O6  1  0.173523  0.305822  0.223592  1
  O  O7  1  0.326483  0.194005  0.776605  1
  O  O8  1  0.108218  0.160766  0.193436  1
  O  O9  1  0.119567  0.169381  0.782962  1
  O  O10  1  0.000965  0.132514  0.818967  1
  O  O11  1  0.198043  0.499915  0.889432  1
  O  O12  1  0.279895  0.127717  0.981511  1
  O  O13  1  0.220107  0.372108  0.018684  1
  O  O14  1  0.167525  0.305488  0.883675  1
  O  O15  1  0.202753  0.499915  0.174866  1
  O  O16  1  0.212115  0.133335  0.857748  1
  O  O17  1  0.287890  0.366489  0.142442  1
  O  O18  1  0.100004  0.158870  0.996199  1
  Si  Si19  1  0.070654  0.113509  0.490168  1
  Si  Si20  1  0.155087  0.194081  0.254002  1
  Si  Si21  1  0.071522  0.113267  0.737480  1
  Si  Si22  1  0.285692  0.112360  0.102784  1
  Si  Si23  1  0.214313  0.387466  0.897409  1
  Si  Si24  1  0.281579  0.112445  0.855189  1
  Si  Si25  1  0.218425  0.387382  0.145004  1
  Si  Si26  1  0.072182  0.113864  0.119686  1
  O  O27  1  0.332480  0.194339  0.116513  1
  O  O28  1  0.000002  0.136172  0.500095  1
  O  O29  1  0.332492  0.805488  0.116509  1
  O  O30  1  0.079507  0.999907  0.467658  1
  O  O31  1  0.120858  0.830867  0.385428  1
  O  O32  1  0.078131  0.864809  0.609361  1
  O  O33  1  0.281889  0.633859  0.804577  1
  O  O34  1  0.218141  0.865965  0.195596  1
  O  O35  1  0.326494  0.805823  0.776592  1
  O  O36  1  0.173535  0.694005  0.223579  1
  O  O37  1  0.108230  0.839063  0.193426  1
  O  O38  1  0.119581  0.830439  0.782953  1
  Si  Si39  1  0.149316  0.806202  0.877848  1
  O  O40  1  0.000976  0.867274  0.818957  1
  O  O41  1  0.082293  0.999905  0.745348  1
  O  O42  1  0.083449  0.999912  0.113368  1
  O  O43  1  0.220123  0.627716  0.018674  1
  O  O44  1  0.279911  0.872108  0.981500  1
  O  O45  1  0.167538  0.694338  0.883672  1
  O  O46  1  0.297264  0.999916  0.825319  1
  O  O47  1  0.287902  0.633335  0.142438  1
  O  O48  1  0.212127  0.866489  0.857743  1
  Si  Si49  1  0.072191  0.885958  0.119678  1
  O  O50  1  0.100015  0.840958  0.996190  1
  Si  Si51  1  0.070663  0.886303  0.490161  1
  Si  Si52  1  0.155099  0.805746  0.253991  1
  Si  Si53  1  0.071531  0.886541  0.737473  1
  Si  Si54  1  0.214326  0.612360  0.897401  1
  Si  Si55  1  0.285704  0.887466  0.102775  1
  Si  Si56  1  0.218438  0.612445  0.144996  1
  Si  Si57  1  0.281592  0.887382  0.855180  1
  O  O58  1  0.000012  0.863623  0.500089  1
  O  O59  1  0.301975  0.999915  0.110752  1
  O  O60  1  0.500005  0.363623  0.500096  1
  O  O61  1  0.579511  0.499888  0.467665  1
  O  O62  1  0.379159  0.330867  0.614756  1
  O  O63  1  0.620850  0.330840  0.385444  1
  O  O64  1  0.421887  0.364809  0.390823  1
  O  O65  1  0.578119  0.364792  0.609377  1
  O  O66  1  0.391787  0.339062  0.806757  1
  O  O67  1  0.608217  0.339028  0.193446  1
  O  O68  1  0.380436  0.330440  0.217232  1
  O  O69  1  0.619565  0.330414  0.782972  1
  O  O70  1  0.499042  0.367275  0.181227  1
  O  O71  1  0.500964  0.367281  0.818975  1
  O  O72  1  0.582291  0.499889  0.745356  1
  Si  Si73  1  0.649301  0.306173  0.877863  1
  Si  Si74  1  0.350702  0.306202  0.122337  1
  O  O75  1  0.417725  0.499906  0.254837  1
  O  O76  1  0.416568  0.499912  0.886816  1
  O  O77  1  0.400002  0.340959  0.003995  1
  O  O78  1  0.600003  0.340928  0.996208  1
  Si  Si79  1  0.429355  0.386303  0.510023  1
  Si  Si80  1  0.570657  0.386286  0.490173  1
  Si  Si81  1  0.344918  0.305746  0.746193  1
  Si  Si82  1  0.655089  0.305715  0.254007  1
  Si  Si83  1  0.428487  0.386541  0.262711  1
  Si  Si84  1  0.571521  0.386527  0.737488  1
  Si  Si85  1  0.427826  0.385958  0.880506  1
  Si  Si86  1  0.572182  0.385931  0.119696  1
  O  O87  1  0.420510  0.499907  0.532526  1
  O  O88  1  0.583448  0.499884  0.113381  1
  O  O89  1  0.500016  0.636172  0.500089  1
  Si  Si90  1  0.427835  0.613864  0.880499  1
  O  O91  1  0.620863  0.668927  0.385434  1
  O  O92  1  0.379172  0.668956  0.614747  1
  O  O93  1  0.578131  0.634986  0.609369  1
  O  O94  1  0.421898  0.635003  0.390815  1
  O  O95  1  0.608229  0.660734  0.193437  1
  O  O96  1  0.391799  0.660767  0.806749  1
  O  O97  1  0.619579  0.669355  0.782962  1
  O  O98  1  0.380451  0.669381  0.217222  1
  O  O99  1  0.500974  0.632520  0.818966  1
  O  O100  1  0.499053  0.632514  0.181219  1
  Si  Si101  1  0.572190  0.613838  0.119689  1
  Si  Si102  1  0.350714  0.693623  0.122331  1
  Si  Si103  1  0.649314  0.693593  0.877857  1
  O  O104  1  0.600015  0.658835  0.996200  1
  O  O105  1  0.400013  0.658869  0.003986  1
  Si  Si106  1  0.570666  0.613492  0.490167  1
  Si  Si107  1  0.429363  0.613509  0.510017  1
  Si  Si108  1  0.655101  0.694049  0.253996  1
  Si  Si109  1  0.344930  0.694081  0.746182  1
  Si  Si110  1  0.571530  0.613254  0.737481  1
  Si  Si111  1  0.428495  0.613268  0.262705  1
  O  O112  1  0.879155  0.168927  0.614752  1
  O  O113  1  0.921887  0.134987  0.390817  1
  O  O114  1  0.781875  0.133830  0.804590  1
  O  O115  1  0.718130  0.365936  0.195607  1
  O  O116  1  0.826481  0.305790  0.776603  1
  O  O117  1  0.673525  0.193973  0.223596  1
  O  O118  1  0.891788  0.160732  0.806749  1
  O  O119  1  0.880439  0.169356  0.217224  1
  O  O120  1  0.999043  0.132521  0.181219  1
  O  O121  1  0.667523  0.194308  0.883683  1
  O  O122  1  0.720106  0.127687  0.018687  1
  O  O123  1  0.779895  0.372079  0.981509  1
  O  O124  1  0.832482  0.305456  0.116507  1
  O  O125  1  0.797263  0.499880  0.825317  1
  O  O126  1  0.787892  0.133306  0.142438  1
  O  O127  1  0.712114  0.366460  0.857752  1
  O  O128  1  0.900003  0.158835  0.003986  1
  Si  Si129  1  0.929351  0.113493  0.510019  1
  Si  Si130  1  0.844916  0.194049  0.746190  1
  Si  Si131  1  0.928488  0.113254  0.262705  1
  Si  Si132  1  0.714312  0.112329  0.897412  1
  Si  Si133  1  0.785693  0.387435  0.102782  1
  Si  Si134  1  0.718426  0.112413  0.145006  1
  Si  Si135  1  0.781579  0.387351  0.855188  1
  Si  Si136  1  0.927827  0.113837  0.880497  1
  Si  Si137  1  0.850704  0.193593  0.122329  1
  O  O138  1  0.801976  0.499880  0.110750  1
  O  O139  1  0.920507  0.999888  0.532520  1
  O  O140  1  0.879167  0.830840  0.614742  1
  O  O141  1  0.921898  0.864792  0.390808  1
  O  O142  1  0.718142  0.633830  0.195596  1
  O  O143  1  0.781888  0.865937  0.804578  1
  O  O144  1  0.673537  0.805790  0.223583  1
  O  O145  1  0.826493  0.693973  0.776589  1
  O  O146  1  0.891800  0.839028  0.806739  1
  O  O147  1  0.880453  0.830414  0.217214  1
  O  O148  1  0.917726  0.999890  0.254830  1
  O  O149  1  0.667536  0.805456  0.883678  1
  O  O150  1  0.779912  0.627687  0.981498  1
  O  O151  1  0.720122  0.872079  0.018676  1
  O  O152  1  0.832494  0.694307  0.116504  1
  O  O153  1  0.702754  0.999880  0.174869  1
  O  O154  1  0.712126  0.633307  0.857748  1
  O  O155  1  0.787904  0.866460  0.142433  1
  O  O156  1  0.698041  0.999880  0.889436  1
  O  O157  1  0.900015  0.840926  0.003977  1
  Si  Si158  1  0.929360  0.886286  0.510012  1
  Si  Si159  1  0.844928  0.805715  0.746178  1
  Si  Si160  1  0.928496  0.886528  0.262698  1
  Si  Si161  1  0.785705  0.612329  0.102774  1
  Si  Si162  1  0.714325  0.887436  0.897403  1
  Si  Si163  1  0.781591  0.612413  0.855180  1
  Si  Si164  1  0.718438  0.887351  0.144997  1
  Si  Si165  1  0.927836  0.885931  0.880489  1
  Si  Si166  1  0.850717  0.806172  0.122322  1
  O  O167  1  0.999054  0.867281  0.181211  1
  O  O168  1  0.916569  0.999883  0.886806  1
