# generated using pymatgen
data_SiO2
_symmetry_space_group_name_H-M   'P 1'
_cell_length_a   13.80974137
_cell_length_b   5.09810601
_cell_length_c   25.64853742
_cell_angle_alpha   90.00000000
_cell_angle_beta   90.00000000
_cell_angle_gamma   90.00000000
_symmetry_Int_Tables_number   1
_chemical_formula_structural   SiO2
_chemical_formula_sum   'Si32 O64'
_cell_volume   1805.7474561
_cell_formula_units_Z   32
loop_
 _symmetry_equiv_pos_site_id
 _symmetry_equiv_pos_as_xyz
  1  'x, y, z'
loop_
 _atom_site_type_symbol
 _atom_site_label
 _atom_site_symmetry_multiplicity
 _atom_site_fract_x
 _atom_site_fract_y
 _atom_site_fract_z
 _atom_site_occupancy
  O  O1  1  0.000051  0.259113  0.046040  1
  O  O2  1  0.500021  0.755817  0.545993  1
  O  O3  1  0.000018  0.759033  0.954005  1
  O  O4  1  0.500056  0.255875  0.454046  1
  O  O5  1  0.093190  0.247920  0.173664  1
  O  O6  1  0.592930  0.745218  0.673803  1
  O  O7  1  0.907245  0.247845  0.173626  1
  O  O8  1  0.406962  0.745283  0.673816  1
  O  O9  1  0.906979  0.748557  0.826393  1
  O  O10  1  0.407231  0.244518  0.326254  1
  O  O11  1  0.092933  0.748539  0.826397  1
  O  O12  1  0.593200  0.244502  0.326223  1
  O  O13  1  0.000145  0.446076  0.248254  1
  O  O14  1  0.499981  0.051297  0.733387  1
  O  O15  1  0.000172  0.943979  0.233209  1
  O  O16  1  0.499967  0.549736  0.748441  1
  O  O17  1  0.999973  0.444701  0.766821  1
  O  O18  1  0.500158  0.048962  0.251614  1
  O  O19  1  0.999970  0.946790  0.751796  1
  O  O20  1  0.500165  0.550519  0.266651  1
  O  O21  1  0.131731  0.008137  0.000307  1
  O  O22  1  0.631765  0.502827  0.500602  1
  O  O23  1  0.868334  0.008050  0.000340  1
  O  O24  1  0.368308  0.502941  0.500559  1
  O  O25  1  0.131756  0.508137  0.999721  1
  O  O26  1  0.631748  0.002828  0.499454  1
  O  O27  1  0.868311  0.508050  0.999722  1
  O  O28  1  0.368325  0.002941  0.499465  1
  O  O29  1  0.170822  0.259954  0.086186  1
  O  O30  1  0.670497  0.757674  0.586252  1
  O  O31  1  0.829334  0.260026  0.086220  1
  O  O32  1  0.329516  0.757531  0.586230  1
  O  O33  1  0.829262  0.760184  0.913853  1
  O  O34  1  0.329587  0.257417  0.413783  1
  O  O35  1  0.170749  0.760156  0.913830  1
  O  O36  1  0.670581  0.257539  0.413816  1
  O  O37  1  0.250315  0.759768  0.249881  1
  O  O38  1  0.749819  0.260080  0.750132  1
  O  O39  1  0.750003  0.759833  0.249984  1
  O  O40  1  0.250142  0.260070  0.750087  1
  O  O41  1  0.099350  0.747751  0.305041  1
  O  O42  1  0.599040  0.250371  0.805365  1
  O  O43  1  0.901040  0.747835  0.305080  1
  O  O44  1  0.400886  0.250345  0.805349  1
  O  O45  1  0.900803  0.248395  0.694988  1
  O  O46  1  0.401117  0.749710  0.194669  1
  O  O47  1  0.099117  0.248368  0.694970  1
  O  O48  1  0.599275  0.749725  0.194707  1
  O  O49  1  0.251725  0.482833  0.166996  1
  O  O50  1  0.748166  0.998255  0.665612  1
  O  O51  1  0.748660  0.482659  0.167128  1
  O  O52  1  0.251854  0.998825  0.665499  1
  O  O53  1  0.245419  0.982716  0.161598  1
  O  O54  1  0.748863  0.498038  0.663093  1
  O  O55  1  0.755014  0.982544  0.161672  1
  O  O56  1  0.250933  0.498598  0.663109  1
  O  O57  1  0.754790  0.483120  0.838401  1
  O  O58  1  0.251264  0.997499  0.336951  1
  O  O59  1  0.245104  0.482970  0.838369  1
  O  O60  1  0.749104  0.997367  0.337073  1
  O  O61  1  0.748391  0.983248  0.833036  1
  O  O62  1  0.252017  0.497715  0.334372  1
  O  O63  1  0.251552  0.983096  0.832977  1
  O  O64  1  0.748425  0.497582  0.334448  1
  Si  Si65  1  0.111606  0.259153  0.033834  1
  Si  Si66  1  0.611574  0.754785  0.533835  1
  Si  Si67  1  0.888490  0.259124  0.033846  1
  Si  Si68  1  0.388472  0.754805  0.533824  1
  Si  Si69  1  0.888463  0.759123  0.966211  1
  Si  Si70  1  0.388502  0.254806  0.466205  1
  Si  Si71  1  0.111578  0.759154  0.966198  1
  Si  Si72  1  0.611604  0.254786  0.466216  1
  Si  Si73  1  0.000174  0.721268  0.275146  1
  Si  Si74  1  0.499970  0.274579  0.775284  1
  Si  Si75  1  0.999968  0.221948  0.724894  1
  Si  Si76  1  0.500176  0.773835  0.224762  1
  Si  Si77  1  0.286909  0.743537  0.192415  1
  Si  Si78  1  0.786641  0.250939  0.692664  1
  Si  Si79  1  0.713486  0.743472  0.192504  1
  Si  Si80  1  0.213275  0.251195  0.692627  1
  Si  Si81  1  0.713247  0.243969  0.807603  1
  Si  Si82  1  0.213512  0.750439  0.307352  1
  Si  Si83  1  0.286679  0.243884  0.807565  1
  Si  Si84  1  0.786881  0.750413  0.307442  1
  Si  Si85  1  0.000197  0.220488  0.207242  1
  Si  Si86  1  0.499956  0.774652  0.707363  1
  Si  Si87  1  0.999958  0.721178  0.792800  1
  Si  Si88  1  0.500198  0.273897  0.292685  1
  Si  Si89  1  0.193385  0.243152  0.146058  1
  Si  Si90  1  0.693093  0.750330  0.646173  1
  Si  Si91  1  0.806958  0.243081  0.146114  1
  Si  Si92  1  0.306841  0.750590  0.646144  1
  Si  Si93  1  0.806757  0.743594  0.853971  1
  Si  Si94  1  0.307042  0.249814  0.353857  1
  Si  Si95  1  0.193187  0.743509  0.853942  1
  Si  Si96  1  0.693305  0.249783  0.353912  1
