# generated using pymatgen
data_SiO2
_symmetry_space_group_name_H-M   'P 1'
_cell_length_a   15.61262590
_cell_length_b   16.76728678
_cell_length_c   7.47100763
_cell_angle_alpha   90.00000000
_cell_angle_beta   96.07000000
_cell_angle_gamma   90.00000000
_symmetry_Int_Tables_number   1
_chemical_formula_structural   SiO2
_chemical_formula_sum   'Si36 O72'
_cell_volume   1944.80552652
_cell_formula_units_Z   36
loop_
 _symmetry_equiv_pos_site_id
 _symmetry_equiv_pos_as_xyz
  1  'x, y, z'
loop_
 _atom_site_type_symbol
 _atom_site_label
 _atom_site_symmetry_multiplicity
 _atom_site_fract_x
 _atom_site_fract_y
 _atom_site_fract_z
 _atom_site_occupancy
  O  O1  1  0.033275  0.737072  0.344247  1
  O  O2  1  0.533293  0.237073  0.344233  1
  O  O3  1  0.966864  0.737073  0.656104  1
  O  O4  1  0.466882  0.237072  0.656091  1
  O  O5  1  0.966882  0.262718  0.656091  1
  O  O6  1  0.466868  0.762719  0.656100  1
  O  O7  1  0.033290  0.262719  0.344237  1
  O  O8  1  0.533275  0.762718  0.344247  1
  O  O9  1  0.580470  0.340247  0.588207  1
  O  O10  1  0.080448  0.840251  0.588214  1
  O  O11  1  0.419710  0.340252  0.412123  1
  O  O12  1  0.919688  0.840247  0.412130  1
  O  O13  1  0.419688  0.659543  0.412131  1
  O  O14  1  0.919710  0.159538  0.412123  1
  O  O15  1  0.580448  0.659538  0.588214  1
  O  O16  1  0.080470  0.159543  0.588207  1
  O  O17  1  0.269556  0.605345  0.206693  1
  O  O18  1  0.769575  0.105335  0.206697  1
  O  O19  1  0.730583  0.605335  0.793641  1
  O  O20  1  0.230602  0.105345  0.793644  1
  O  O21  1  0.730602  0.394445  0.793644  1
  O  O22  1  0.230583  0.894455  0.793641  1
  O  O23  1  0.269575  0.394455  0.206696  1
  O  O24  1  0.769556  0.894445  0.206693  1
  O  O25  1  0.277609  0.644318  0.548006  1
  O  O26  1  0.777633  0.144310  0.548008  1
  O  O27  1  0.722524  0.644310  0.452330  1
  O  O28  1  0.222549  0.144318  0.452332  1
  O  O29  1  0.722549  0.355472  0.452331  1
  O  O30  1  0.222524  0.855480  0.452330  1
  O  O31  1  0.277633  0.355480  0.548008  1
  O  O32  1  0.777609  0.855472  0.548006  1
  O  O33  1  0.295441  0.745615  0.300823  1
  O  O34  1  0.795462  0.245605  0.300819  1
  O  O35  1  0.704696  0.745605  0.699519  1
  O  O36  1  0.204716  0.245615  0.699515  1
  O  O37  1  0.704716  0.254175  0.699515  1
  O  O38  1  0.204696  0.754185  0.699519  1
  O  O39  1  0.295462  0.254185  0.300819  1
  O  O40  1  0.795442  0.754175  0.300823  1
  O  O41  1  0.650014  0.290779  0.168778  1
  O  O42  1  0.149992  0.790781  0.168780  1
  O  O43  1  0.350166  0.290781  0.831557  1
  O  O44  1  0.850144  0.790779  0.831560  1
  O  O45  1  0.350141  0.709010  0.831565  1
  O  O46  1  0.850166  0.209009  0.831557  1
  O  O47  1  0.649992  0.709009  0.168781  1
  O  O48  1  0.150017  0.209010  0.168772  1
  O  O49  1  0.114796  0.646453  0.118561  1
  O  O50  1  0.614817  0.146453  0.118554  1
  O  O51  1  0.885341  0.646453  0.881784  1
  O  O52  1  0.385362  0.146453  0.881777  1
  O  O53  1  0.885362  0.353337  0.881777  1
  O  O54  1  0.385341  0.853337  0.881784  1
  O  O55  1  0.114817  0.353337  0.118554  1
  O  O56  1  0.614796  0.853337  0.118561  1
  O  O57  1  0.000067  0.748970  0.000176  1
  O  O58  1  0.500090  0.248970  0.000161  1
  O  O59  1  0.000091  0.250820  0.000161  1
  O  O60  1  0.500067  0.750820  0.000176  1
  O  O61  1  0.216325  0.621142  0.873421  1
  O  O62  1  0.716350  0.121135  0.873422  1
  O  O63  1  0.783808  0.621135  0.126915  1
  O  O64  1  0.283833  0.121142  0.126916  1
  O  O65  1  0.783833  0.378648  0.126916  1
  O  O66  1  0.283808  0.878655  0.126915  1
  O  O67  1  0.216350  0.378655  0.873422  1
  O  O68  1  0.716325  0.878648  0.873421  1
  O  O69  1  0.166915  0.499895  0.054289  1
  O  O70  1  0.666914  0.999895  0.054289  1
  O  O71  1  0.833243  0.499895  0.946048  1
  O  O72  1  0.333243  0.999895  0.946048  1
  Si  Si73  1  0.810718  0.408381  0.940020  1
  Si  Si74  1  0.310700  0.908386  0.940021  1
  Si  Si75  1  0.189458  0.408385  0.060317  1
  Si  Si76  1  0.689440  0.908381  0.060318  1
  Si  Si77  1  0.189440  0.591409  0.060318  1
  Si  Si78  1  0.689458  0.091405  0.060317  1
  Si  Si79  1  0.810700  0.591405  0.940021  1
  Si  Si80  1  0.310718  0.091408  0.940020  1
  Si  Si81  1  0.072364  0.729554  0.157744  1
  Si  Si82  1  0.572385  0.229554  0.157734  1
  Si  Si83  1  0.927773  0.729554  0.842604  1
  Si  Si84  1  0.427794  0.229554  0.842593  1
  Si  Si85  1  0.927794  0.270236  0.842593  1
  Si  Si86  1  0.427773  0.770236  0.842603  1
  Si  Si87  1  0.072385  0.270236  0.157734  1
  Si  Si88  1  0.572364  0.770236  0.157744  1
  Si  Si89  1  0.317871  0.657130  0.363004  1
  Si  Si90  1  0.817891  0.157121  0.363001  1
  Si  Si91  1  0.682266  0.657121  0.637335  1
  Si  Si92  1  0.182286  0.157130  0.637333  1
  Si  Si93  1  0.682288  0.342660  0.637334  1
  Si  Si94  1  0.182265  0.842668  0.637334  1
  Si  Si95  1  0.317892  0.342669  0.363003  1
  Si  Si96  1  0.817870  0.842660  0.363003  1
  Si  Si97  1  0.260516  0.676900  0.740177  1
  Si  Si98  1  0.760540  0.176893  0.740178  1
  Si  Si99  1  0.739617  0.676893  0.260160  1
  Si  Si100  1  0.239642  0.176900  0.260160  1
  Si  Si101  1  0.739641  0.322890  0.260160  1
  Si  Si102  1  0.239618  0.822897  0.260160  1
  Si  Si103  1  0.260540  0.322897  0.740177  1
  Si  Si104  1  0.760516  0.822890  0.740177  1
  Si  Si105  1  0.000070  0.789565  0.500175  1
  Si  Si106  1  0.500088  0.289565  0.500163  1
  Si  Si107  1  0.000090  0.210225  0.500164  1
  Si  Si108  1  0.500069  0.710225  0.500174  1
