# generated using pymatgen
data_SiO2
_symmetry_space_group_name_H-M   'P 1'
_cell_length_a   13.52228189
_cell_length_b   13.52203314
_cell_length_c   14.76683370
_cell_angle_alpha   90.00000000
_cell_angle_beta   90.00000000
_cell_angle_gamma   120.00000000
_symmetry_Int_Tables_number   1
_chemical_formula_structural   SiO2
_chemical_formula_sum   'Si36 O72'
_cell_volume   2338.35258938
_cell_formula_units_Z   36
loop_
 _symmetry_equiv_pos_site_id
 _symmetry_equiv_pos_as_xyz
  1  'x, y, z'
loop_
 _atom_site_type_symbol
 _atom_site_label
 _atom_site_symmetry_multiplicity
 _atom_site_fract_x
 _atom_site_fract_y
 _atom_site_fract_z
 _atom_site_occupancy
  O  O1  1  0.902527  0.100248  0.115445  1
  O  O2  1  0.204291  0.099945  0.115244  1
  O  O3  1  0.770704  0.232893  0.218228  1
  O  O4  1  0.468880  0.232850  0.218134  1
  O  O5  1  0.975436  0.305169  0.166928  1
  O  O6  1  0.336953  0.027934  0.166577  1
  O  O7  1  0.697891  0.027945  0.166949  1
  O  O8  1  0.336262  0.304850  0.166720  1
  O  O9  1  0.119952  0.233227  0.126246  1
  O  O10  1  0.553228  0.099650  0.207380  1
  O  O11  1  0.903993  0.450305  0.207259  1
  O  O12  1  0.552502  0.450263  0.207291  1
  Si  Si13  1  0.897854  0.333197  0.229352  1
  O  O14  1  0.003090  0.254710  0.000220  1
  Si  Si15  1  0.002946  0.227361  0.104317  1
  Si  Si16  1  0.442209  0.105739  0.229249  1
  Si  Si17  1  0.230891  0.227045  0.104182  1
  Si  Si18  1  0.670322  0.105794  0.229455  1
  Si  Si19  1  0.441730  0.332961  0.229323  1
  O  O20  1  0.257797  0.254475  0.000063  1
  O  O21  1  0.569053  0.433649  0.448645  1
  O  O22  1  0.569482  0.132403  0.448787  1
  O  O23  1  0.870671  0.433905  0.448661  1
  Si  Si24  1  0.108443  0.438957  0.562784  1
  O  O25  1  0.003030  0.361422  0.500211  1
  O  O26  1  0.364267  0.361093  0.500188  1
  O  O27  1  0.435736  0.216205  0.459538  1
  O  O28  1  0.786919  0.216365  0.459632  1
  O  O29  1  0.219248  0.432476  0.540755  1
  Si  Si30  1  0.441868  0.333328  0.437568  1
  Si  Si31  1  0.336409  0.438690  0.562731  1
  Si  Si32  1  0.897681  0.333667  0.437593  1
  Si  Si33  1  0.669736  0.105416  0.437711  1
  Si  Si34  1  0.442276  0.105440  0.437506  1
  O  O35  1  0.670017  0.078447  0.333580  1
  O  O36  1  0.924981  0.333519  0.333510  1
  O  O37  1  0.414573  0.333077  0.333445  1
  O  O38  1  0.415129  0.078437  0.333365  1
  O  O39  1  0.235593  0.465571  0.782175  1
  O  O40  1  0.103280  0.200700  0.884780  1
  O  O41  1  0.030863  0.333210  0.833597  1
  O  O42  1  0.308063  0.333152  0.833493  1
  O  O43  1  0.236946  0.116800  0.873873  1
  O  O44  1  0.885777  0.116906  0.874102  1
  O  O45  1  0.081239  0.411603  0.666889  1
  Si  Si46  1  0.003070  0.227710  0.896062  1
  Si  Si47  1  0.108391  0.438648  0.771022  1
  Si  Si48  1  0.335845  0.438607  0.770974  1
  Si  Si49  1  0.230478  0.227590  0.895928  1
  O  O50  1  0.336076  0.411487  0.666870  1
  O  O51  1  0.902906  0.799092  0.115416  1
  O  O52  1  0.770055  0.533998  0.218038  1
  O  O53  1  0.697939  0.666571  0.166748  1
  O  O54  1  0.974980  0.666440  0.166620  1
  O  O55  1  0.769111  0.882830  0.126308  1
  O  O56  1  0.120580  0.882602  0.126040  1
  O  O57  1  0.747932  0.999799  0.000214  1
  Si  Si58  1  0.669839  0.561029  0.229232  1
  O  O59  1  0.748254  0.745039  0.000196  1
  Si  Si60  1  0.775643  0.772066  0.104301  1
  Si  Si61  1  0.897308  0.561027  0.229172  1
  Si  Si62  1  0.003071  0.771993  0.104145  1
  O  O63  1  0.924522  0.588236  0.333279  1
  Si  Si64  1  0.231439  0.999835  0.104022  1
  Si  Si65  1  0.764025  0.999995  0.104311  1
  O  O66  1  0.436699  0.565890  0.551583  1
  O  O67  1  0.436967  0.867376  0.551335  1
  O  O68  1  0.135321  0.566128  0.551522  1
  O  O69  1  0.641492  0.638361  0.500140  1
  O  O70  1  0.003046  0.638688  0.499882  1
  Si  Si71  1  0.563912  0.666141  0.562774  1
  O  O72  1  0.786617  0.567323  0.459446  1
  O  O73  1  0.570484  0.783464  0.540760  1
  O  O74  1  0.219396  0.783527  0.540401  1
  Si  Si75  1  0.564189  0.894388  0.562664  1
  Si  Si76  1  0.108418  0.666438  0.562476  1
  Si  Si77  1  0.336687  0.894328  0.562367  1
  O  O78  1  0.364669  0.999849  0.499894  1
  Si  Si79  1  0.669321  0.560844  0.437477  1
  Si  Si80  1  0.897536  0.561079  0.437413  1
  O  O81  1  0.336374  0.921339  0.666475  1
  O  O82  1  0.641864  0.999921  0.500213  1
  O  O83  1  0.081244  0.666664  0.666573  1
  O  O84  1  0.669587  0.588120  0.333346  1
  O  O85  1  0.235623  0.766961  0.781857  1
  O  O86  1  0.537156  0.766915  0.782098  1
  O  O87  1  0.103445  0.899416  0.884800  1
  O  O88  1  0.801818  0.899381  0.884839  1
  O  O89  1  0.308137  0.971815  0.833010  1
  O  O90  1  0.669442  0.694477  0.833630  1
  O  O91  1  0.030841  0.694668  0.833246  1
  O  O92  1  0.669425  0.971763  0.833544  1
  O  O93  1  0.453140  0.900410  0.792777  1
  O  O94  1  0.101959  0.549514  0.792832  1
  O  O95  1  0.453095  0.549435  0.792993  1
  O  O96  1  0.885894  0.765972  0.873953  1
  O  O97  1  0.258327  0.999735  0.999839  1
  Si  Si98  1  0.230704  0.999611  0.895785  1
  Si  Si99  1  0.774991  0.772218  0.896042  1
  Si  Si100  1  0.335983  0.894097  0.770618  1
  Si  Si101  1  0.564029  0.666613  0.771025  1
  Si  Si102  1  0.108399  0.666754  0.770713  1
  Si  Si103  1  0.564057  0.894090  0.770925  1
  Si  Si104  1  0.003098  0.772250  0.895895  1
  Si  Si105  1  0.774909  0.999660  0.896063  1
  O  O106  1  0.591265  0.921401  0.666813  1
  O  O107  1  0.591128  0.666314  0.666915  1
  O  O108  1  0.002982  0.744884  0.999993  1
