# generated using pymatgen
data_SiO2
_symmetry_space_group_name_H-M   'P 1'
_cell_length_a   5.07185669
_cell_length_b   13.91779927
_cell_length_c   16.59159418
_cell_angle_alpha   90.00000000
_cell_angle_beta   90.00000000
_cell_angle_gamma   90.00000000
_symmetry_Int_Tables_number   1
_chemical_formula_structural   SiO2
_chemical_formula_sum   'Si24 O48'
_cell_volume   1171.18542544
_cell_formula_units_Z   24
loop_
 _symmetry_equiv_pos_site_id
 _symmetry_equiv_pos_as_xyz
  1  'x, y, z'
loop_
 _atom_site_type_symbol
 _atom_site_label
 _atom_site_symmetry_multiplicity
 _atom_site_fract_x
 _atom_site_fract_y
 _atom_site_fract_z
 _atom_site_occupancy
  O  O1  1  0.006484  0.173361  0.115020  1
  O  O2  1  0.501796  0.673613  0.116339  1
  O  O3  1  0.990821  0.826327  0.614900  1
  O  O4  1  0.491976  0.325898  0.617007  1
  O  O5  1  0.005620  0.826342  0.885089  1
  O  O6  1  0.502646  0.325771  0.883367  1
  O  O7  1  0.991768  0.173667  0.385111  1
  O  O8  1  0.491135  0.674048  0.383597  1
  O  O9  1  0.216623  0.247666  0.990934  1
  O  O10  1  0.793465  0.750514  0.008872  1
  O  O11  1  0.716843  0.252160  0.007939  1
  O  O12  1  0.293649  0.748309  0.991968  1
  O  O13  1  0.284166  0.749592  0.508173  1
  O  O14  1  0.707862  0.253456  0.492586  1
  O  O15  1  0.784143  0.750280  0.490701  1
  O  O16  1  0.207765  0.247419  0.508840  1
  O  O17  1  0.008295  0.359706  0.092346  1
  O  O18  1  0.506357  0.859948  0.092715  1
  O  O19  1  0.999541  0.639993  0.592530  1
  O  O20  1  0.498021  0.139751  0.592796  1
  O  O21  1  0.007515  0.639769  0.907263  1
  O  O22  1  0.506625  0.139533  0.907131  1
  O  O23  1  0.000273  0.360009  0.407673  1
  O  O24  1  0.497102  0.860393  0.406930  1
  O  O25  1  0.767057  0.014347  0.127919  1
  O  O26  1  0.240417  0.519184  0.136239  1
  O  O27  1  0.261859  0.017433  0.131664  1
  O  O28  1  0.734866  0.512455  0.121988  1
  O  O29  1  0.733008  0.981027  0.633802  1
  O  O30  1  0.232940  0.480849  0.637154  1
  O  O31  1  0.227887  0.986279  0.625409  1
  O  O32  1  0.727139  0.486611  0.620153  1
  O  O33  1  0.273070  0.979775  0.866915  1
  O  O34  1  0.730438  0.487590  0.879078  1
  O  O35  1  0.778222  0.987420  0.874135  1
  O  O36  1  0.236108  0.479403  0.863708  1
  O  O37  1  0.220017  0.012224  0.376109  1
  O  O38  1  0.730695  0.513913  0.379272  1
  O  O39  1  0.725131  0.020691  0.365321  1
  O  O40  1  0.236485  0.518527  0.363145  1
  O  O41  1  0.005756  0.085478  0.250240  1
  O  O42  1  0.531982  0.582569  0.250140  1
  O  O43  1  0.003456  0.914243  0.750008  1
  O  O44  1  0.531730  0.418235  0.749992  1
  O  O45  1  0.500884  0.999909  0.000083  1
  O  O46  1  0.029550  0.500022  0.000122  1
  O  O47  1  0.507299  0.999929  0.500039  1
  O  O48  1  0.029949  0.500080  0.500027  1
  Si  Si49  1  0.986935  0.257143  0.052806  1
  Si  Si50  1  0.523767  0.757045  0.053754  1
  Si  Si51  1  0.014142  0.742585  0.552764  1
  Si  Si52  1  0.477113  0.242679  0.554016  1
  Si  Si53  1  0.024142  0.742300  0.947082  1
  Si  Si54  1  0.486532  0.242348  0.946162  1
  Si  Si55  1  0.977201  0.257562  0.447333  1
  Si  Si56  1  0.514031  0.757561  0.446119  1
  Si  Si57  1  0.009607  0.073159  0.157073  1
  Si  Si58  1  0.502451  0.572423  0.157049  1
  Si  Si59  1  0.989979  0.926572  0.656933  1
  Si  Si60  1  0.495953  0.427496  0.657024  1
  Si  Si61  1  0.014752  0.926582  0.843112  1
  Si  Si62  1  0.500074  0.427249  0.843114  1
  Si  Si63  1  0.986320  0.073308  0.343257  1
  Si  Si64  1  0.497906  0.572726  0.343108  1
  Si  Si65  1  0.509394  0.972966  0.090867  1
  Si  Si66  1  0.003164  0.472803  0.090745  1
  Si  Si67  1  0.490741  0.026701  0.590846  1
  Si  Si68  1  0.996858  0.526888  0.590601  1
  Si  Si69  1  0.514917  0.026571  0.909268  1
  Si  Si70  1  0.000492  0.526687  0.909448  1
  Si  Si71  1  0.486682  0.973365  0.409247  1
  Si  Si72  1  0.999099  0.473132  0.409415  1
