# generated using pymatgen
data_SiO2
_symmetry_space_group_name_H-M   'P 1'
_cell_length_a   7.42120892
_cell_length_b   18.28076226
_cell_length_c   13.90537469
_cell_angle_alpha   90.00000000
_cell_angle_beta   90.00000000
_cell_angle_gamma   90.00000000
_symmetry_Int_Tables_number   1
_chemical_formula_structural   SiO2
_chemical_formula_sum   'Si36 O72'
_cell_volume   1886.47760722
_cell_formula_units_Z   36
loop_
 _symmetry_equiv_pos_site_id
 _symmetry_equiv_pos_as_xyz
  1  'x, y, z'
loop_
 _atom_site_type_symbol
 _atom_site_label
 _atom_site_symmetry_multiplicity
 _atom_site_fract_x
 _atom_site_fract_y
 _atom_site_fract_z
 _atom_site_occupancy
  O  O1  1  0.257273  0.253436  0.001942  1
  O  O2  1  0.759006  0.753084  0.001794  1
  O  O3  1  0.756391  0.245992  0.997877  1
  O  O4  1  0.256960  0.746144  0.997787  1
  O  O5  1  0.257070  0.746265  0.502353  1
  O  O6  1  0.756396  0.246103  0.502272  1
  O  O7  1  0.758782  0.753200  0.498305  1
  O  O8  1  0.257089  0.253542  0.498124  1
  O  O9  1  0.166466  0.121823  0.000005  1
  O  O10  1  0.668153  0.621475  0.000199  1
  O  O11  1  0.830391  0.113777  0.006557  1
  O  O12  1  0.332056  0.614005  0.006488  1
  O  O13  1  0.168123  0.878127  0.499906  1
  O  O14  1  0.666360  0.377803  0.499769  1
  O  O15  1  0.831740  0.885604  0.506122  1
  O  O16  1  0.330156  0.385887  0.506267  1
  O  O17  1  0.831753  0.885517  0.994085  1
  O  O18  1  0.330188  0.385806  0.993919  1
  O  O19  1  0.168164  0.878028  0.000324  1
  O  O20  1  0.666412  0.377705  0.000461  1
  O  O21  1  0.830301  0.113867  0.493672  1
  O  O22  1  0.331985  0.614100  0.493745  1
  O  O23  1  0.166397  0.121914  0.500180  1
  O  O24  1  0.668111  0.621565  0.500004  1
  O  O25  1  0.498935  0.160951  0.040130  1
  O  O26  1  0.000605  0.660720  0.040464  1
  O  O27  1  0.500520  0.838273  0.539340  1
  O  O28  1  0.998830  0.338476  0.539582  1
  O  O29  1  0.500554  0.838123  0.960948  1
  O  O30  1  0.998881  0.338357  0.960654  1
  O  O31  1  0.498879  0.161071  0.460102  1
  O  O32  1  0.000564  0.660865  0.459822  1
  O  O33  1  0.244960  0.193167  0.158441  1
  O  O34  1  0.746479  0.693104  0.158484  1
  O  O35  1  0.749712  0.192694  0.159116  1
  O  O36  1  0.251672  0.692879  0.159104  1
  O  O37  1  0.247063  0.807044  0.658446  1
  O  O38  1  0.745168  0.306847  0.658430  1
  O  O39  1  0.750912  0.807266  0.659041  1
  O  O40  1  0.249346  0.307312  0.659044  1
  O  O41  1  0.750850  0.807247  0.841128  1
  O  O42  1  0.249312  0.307304  0.841088  1
  O  O43  1  0.247132  0.807008  0.841754  1
  O  O44  1  0.745195  0.306810  0.841764  1
  O  O45  1  0.749680  0.192728  0.341076  1
  O  O46  1  0.251599  0.692911  0.341094  1
  O  O47  1  0.244979  0.193179  0.341689  1
  O  O48  1  0.746534  0.693125  0.341686  1
  O  O49  1  0.327621  0.310548  0.250061  1
  O  O50  1  0.829619  0.810486  0.250065  1
  O  O51  1  0.664523  0.310403  0.250073  1
  O  O52  1  0.166464  0.810574  0.250075  1
  O  O53  1  0.329444  0.689675  0.750069  1
  O  O54  1  0.827488  0.189482  0.750070  1
  O  O55  1  0.666485  0.689590  0.750071  1
  O  O56  1  0.164481  0.189641  0.750069  1
  O  O57  1  0.996596  0.259972  0.250072  1
  O  O58  1  0.498522  0.760106  0.250092  1
  O  O59  1  0.998446  0.740296  0.750092  1
  O  O60  1  0.496508  0.240160  0.750075  1
  O  O61  1  0.017792  0.999892  0.500349  1
  O  O62  1  0.517828  0.499814  0.500421  1
  O  O63  1  0.017851  0.999798  0.999691  1
  O  O64  1  0.517894  0.499722  0.999619  1
  O  O65  1  0.995595  0.091440  0.653623  1
  O  O66  1  0.497165  0.591508  0.653634  1
  O  O67  1  0.997234  0.908681  0.153612  1
  O  O68  1  0.495655  0.408650  0.153622  1
  O  O69  1  0.997215  0.908678  0.346554  1
  O  O70  1  0.495640  0.408648  0.346539  1
  O  O71  1  0.995594  0.091440  0.846541  1
  O  O72  1  0.497163  0.591512  0.846535  1
  Si  Si73  1  0.292297  0.178264  0.050262  1
  Si  Si74  1  0.793911  0.678000  0.050377  1
  Si  Si75  1  0.707005  0.174287  0.051513  1
  Si  Si76  1  0.208596  0.674399  0.051573  1
  Si  Si77  1  0.293738  0.821532  0.550061  1
  Si  Si78  1  0.792165  0.321394  0.550099  1
  Si  Si79  1  0.708548  0.825121  0.551211  1
  Si  Si80  1  0.206926  0.325359  0.551285  1
  Si  Si81  1  0.708581  0.825029  0.948994  1
  Si  Si82  1  0.206966  0.325285  0.948879  1
  Si  Si83  1  0.293761  0.821432  0.950161  1
  Si  Si84  1  0.792201  0.321305  0.950105  1
  Si  Si85  1  0.706941  0.174376  0.448693  1
  Si  Si86  1  0.208557  0.674498  0.448651  1
  Si  Si87  1  0.292227  0.178340  0.449897  1
  Si  Si88  1  0.793862  0.678091  0.449825  1
  Si  Si89  1  0.204095  0.240719  0.250060  1
  Si  Si90  1  0.705941  0.740713  0.250077  1
  Si  Si91  1  0.789109  0.240872  0.250082  1
  Si  Si92  1  0.291019  0.741040  0.250088  1
  Si  Si93  1  0.205958  0.759525  0.750088  1
  Si  Si94  1  0.704045  0.259343  0.750083  1
  Si  Si95  1  0.790851  0.759203  0.750078  1
  Si  Si96  1  0.288988  0.259203  0.750063  1
  Si  Si97  1  0.001665  0.078926  0.541014  1
  Si  Si98  1  0.503001  0.578904  0.541039  1
  Si  Si99  1  0.002986  0.920893  0.040934  1
  Si  Si100  1  0.501679  0.420883  0.040946  1
  Si  Si101  1  0.002952  0.920953  0.459218  1
  Si  Si102  1  0.501638  0.420943  0.459202  1
  Si  Si103  1  0.001717  0.078864  0.959136  1
  Si  Si104  1  0.503040  0.578845  0.959115  1
  Si  Si105  1  0.997844  0.862495  0.250084  1
  Si  Si106  1  0.496098  0.362435  0.250082  1
  Si  Si107  1  0.996025  0.137629  0.750083  1
  Si  Si108  1  0.497769  0.637710  0.750085  1
