# generated using pymatgen
data_SiO2
_symmetry_space_group_name_H-M   'P 1'
_cell_length_a   8.53699923
_cell_length_b   14.40493347
_cell_length_c   15.89494310
_cell_angle_alpha   90.00000000
_cell_angle_beta   90.00000000
_cell_angle_gamma   90.00000000
_symmetry_Int_Tables_number   1
_chemical_formula_structural   SiO2
_chemical_formula_sum   'Si32 O64'
_cell_volume   1954.67913216
_cell_formula_units_Z   32
loop_
 _symmetry_equiv_pos_site_id
 _symmetry_equiv_pos_as_xyz
  1  'x, y, z'
loop_
 _atom_site_type_symbol
 _atom_site_label
 _atom_site_symmetry_multiplicity
 _atom_site_fract_x
 _atom_site_fract_y
 _atom_site_fract_z
 _atom_site_occupancy
  O  O1  1  0.850813  0.249872  0.172093  1
  O  O2  1  0.649402  0.749873  0.672093  1
  O  O3  1  0.149402  0.749872  0.827977  1
  O  O4  1  0.350813  0.249872  0.327977  1
  O  O5  1  0.713858  0.132713  0.076133  1
  O  O6  1  0.786357  0.632713  0.576133  1
  O  O7  1  0.713858  0.367032  0.076134  1
  O  O8  1  0.786356  0.867032  0.576134  1
  O  O9  1  0.286357  0.867032  0.923936  1
  O  O10  1  0.213857  0.367032  0.423936  1
  O  O11  1  0.286357  0.632713  0.923936  1
  O  O12  1  0.213859  0.132713  0.423936  1
  O  O13  1  0.971527  0.083576  0.166460  1
  O  O14  1  0.528689  0.583576  0.666460  1
  O  O15  1  0.971526  0.416169  0.166460  1
  O  O16  1  0.528688  0.916169  0.666460  1
  O  O17  1  0.028689  0.916169  0.833610  1
  O  O18  1  0.471527  0.416169  0.333610  1
  O  O19  1  0.028690  0.583576  0.833610  1
  O  O20  1  0.471526  0.083576  0.333610  1
  O  O21  1  0.703007  0.110720  0.231834  1
  O  O22  1  0.797209  0.610719  0.731834  1
  O  O23  1  0.703005  0.389026  0.231834  1
  O  O24  1  0.797208  0.889025  0.731833  1
  O  O25  1  0.297209  0.889026  0.768236  1
  O  O26  1  0.203006  0.389026  0.268236  1
  O  O27  1  0.297209  0.610719  0.768235  1
  O  O28  1  0.203007  0.110720  0.268236  1
  O  O29  1  0.567214  0.397512  0.937242  1
  O  O30  1  0.933001  0.897513  0.437241  1
  O  O31  1  0.567214  0.102233  0.937242  1
  O  O32  1  0.933001  0.602233  0.437243  1
  O  O33  1  0.433001  0.602233  0.062827  1
  O  O34  1  0.067214  0.102233  0.562828  1
  O  O35  1  0.433001  0.897513  0.062828  1
  O  O36  1  0.067214  0.397512  0.562827  1
  O  O37  1  0.438761  0.425796  0.079199  1
  O  O38  1  0.061455  0.925796  0.579200  1
  O  O39  1  0.438761  0.073949  0.079200  1
  O  O40  1  0.061453  0.573950  0.579199  1
  O  O41  1  0.561453  0.573950  0.920870  1
  O  O42  1  0.938761  0.073950  0.420870  1
  O  O43  1  0.561454  0.925796  0.920870  1
  O  O44  1  0.938762  0.425795  0.420870  1
  O  O45  1  0.505230  0.249872  0.031788  1
  O  O46  1  0.994985  0.749872  0.531788  1
  O  O47  1  0.494985  0.749872  0.968282  1
  O  O48  1  0.005230  0.249873  0.468282  1
  O  O49  1  0.021039  0.521487  0.293485  1
  O  O50  1  0.479177  0.021487  0.793485  1
  O  O51  1  0.021039  0.978258  0.293485  1
  O  O52  1  0.479176  0.478258  0.793485  1
  O  O53  1  0.979176  0.478258  0.706584  1
  O  O54  1  0.521039  0.978258  0.206584  1
  O  O55  1  0.979177  0.021488  0.706584  1
  O  O56  1  0.521039  0.521488  0.206584  1
  O  O57  1  0.232161  0.516915  0.164084  1
  O  O58  1  0.268055  0.016915  0.664084  1
  O  O59  1  0.232162  0.982830  0.164084  1
  O  O60  1  0.268055  0.482830  0.664084  1
  O  O61  1  0.768055  0.482830  0.835985  1
  O  O62  1  0.732161  0.982830  0.335985  1
  O  O63  1  0.768053  0.016915  0.835986  1
  O  O64  1  0.732160  0.516915  0.335985  1
  Si  Si65  1  0.816354  0.143259  0.158733  1
  Si  Si66  1  0.683861  0.643259  0.658733  1
  Si  Si67  1  0.816356  0.356487  0.158733  1
  Si  Si68  1  0.683864  0.856487  0.658733  1
  Si  Si69  1  0.183860  0.856487  0.841336  1
  Si  Si70  1  0.316355  0.356487  0.341336  1
  Si  Si71  1  0.183860  0.643259  0.841337  1
  Si  Si72  1  0.316355  0.143259  0.341336  1
  Si  Si73  1  0.550228  0.357123  0.029253  1
  Si  Si74  1  0.949987  0.857124  0.529254  1
  Si  Si75  1  0.550228  0.142622  0.029253  1
  Si  Si76  1  0.949988  0.642621  0.529252  1
  Si  Si77  1  0.449988  0.642622  0.970816  1
  Si  Si78  1  0.050227  0.142621  0.470816  1
  Si  Si79  1  0.449988  0.857124  0.970816  1
  Si  Si80  1  0.050227  0.357125  0.470817  1
  Si  Si81  1  0.104748  0.465472  0.219803  1
  Si  Si82  1  0.395466  0.965473  0.719803  1
  Si  Si83  1  0.104747  0.034272  0.219804  1
  Si  Si84  1  0.395467  0.534273  0.719804  1
  Si  Si85  1  0.895466  0.534272  0.780267  1
  Si  Si86  1  0.604747  0.034272  0.280266  1
  Si  Si87  1  0.895467  0.965472  0.780266  1
  Si  Si88  1  0.604748  0.465471  0.280265  1
  Si  Si89  1  0.405751  0.979079  0.127694  1
  Si  Si90  1  0.094464  0.479078  0.627693  1
  Si  Si91  1  0.405750  0.520665  0.127695  1
  Si  Si92  1  0.094464  0.020665  0.627694  1
  Si  Si93  1  0.594465  0.020666  0.872375  1
  Si  Si94  1  0.905752  0.520666  0.372376  1
  Si  Si95  1  0.594465  0.479080  0.872375  1
  Si  Si96  1  0.905752  0.979079  0.372376  1
