# generated using pymatgen
data_SiO2
_symmetry_space_group_name_H-M   'P 1'
_cell_length_a   12.23191645
_cell_length_b   12.23055356
_cell_length_c   5.14927914
_cell_angle_alpha   90.00000000
_cell_angle_beta   90.00000000
_cell_angle_gamma   120.00000000
_symmetry_Int_Tables_number   1
_chemical_formula_structural   SiO2
_chemical_formula_sum   'Si12 O24'
_cell_volume   667.141084427
_cell_formula_units_Z   12
loop_
 _symmetry_equiv_pos_site_id
 _symmetry_equiv_pos_as_xyz
  1  'x, y, z'
loop_
 _atom_site_type_symbol
 _atom_site_label
 _atom_site_symmetry_multiplicity
 _atom_site_fract_x
 _atom_site_fract_y
 _atom_site_fract_z
 _atom_site_occupancy
  O  O1  1  0.008384  0.353617  0.487051  1
  O  O2  1  0.653761  0.645958  0.515041  1
  O  O3  1  0.350539  0.993640  0.487026  1
  O  O4  1  0.001592  0.647688  0.998701  1
  O  O5  1  0.356102  0.348241  0.991891  1
  O  O6  1  0.651879  0.000471  0.998533  1
  O  O7  1  0.649576  0.999380  0.498498  1
  O  O8  1  0.350206  0.354150  0.491893  1
  O  O9  1  0.002131  0.649668  0.498748  1
  O  O10  1  0.355621  0.006163  0.987191  1
  O  O11  1  0.648097  0.651562  0.015048  1
  O  O12  1  0.995926  0.348551  0.986889  1
  O  O13  1  0.208570  0.413079  0.765196  1
  O  O14  1  0.589214  0.793488  0.742700  1
  O  O15  1  0.208219  0.793838  0.758125  1
  O  O16  1  0.795294  0.586605  0.242236  1
  O  O17  1  0.414680  0.206289  0.265267  1
  O  O18  1  0.795721  0.206290  0.259170  1
  O  O19  1  0.111930  0.554941  0.746667  1
  O  O20  1  0.447261  0.554943  0.753626  1
  O  O21  1  0.446927  0.890090  0.751238  1
  O  O22  1  0.892334  0.444834  0.250949  1
  O  O23  1  0.556798  0.445006  0.253680  1
  O  O24  1  0.556844  0.109890  0.246902  1
  Si  Si25  1  0.081993  0.414249  0.745319  1
  Si  Si26  1  0.587904  0.665583  0.757444  1
  Si  Si27  1  0.336339  0.920193  0.745533  1
  Si  Si28  1  0.922017  0.585388  0.249101  1
  Si  Si29  1  0.416153  0.334331  0.249871  1
  Si  Si30  1  0.667490  0.079877  0.249240  1
  Si  Si31  1  0.587549  0.920013  0.749253  1
  Si  Si32  1  0.336469  0.414327  0.749865  1
  Si  Si33  1  0.081834  0.665538  0.749070  1
  Si  Si34  1  0.416129  0.079817  0.245479  1
  Si  Si35  1  0.667577  0.585602  0.257436  1
  Si  Si36  1  0.922361  0.334198  0.245425  1
