# generated using pymatgen
data_SiO2
_symmetry_space_group_name_H-M   'P 1'
_cell_length_a   13.02202298
_cell_length_b   11.19823538
_cell_length_c   9.37740949
_cell_angle_alpha   92.35000000
_cell_angle_beta   107.30000000
_cell_angle_gamma   104.50000000
_symmetry_Int_Tables_number   1
_chemical_formula_structural   SiO2
_chemical_formula_sum   'Si20 O40'
_cell_volume   1254.10053199
_cell_formula_units_Z   20
loop_
 _symmetry_equiv_pos_site_id
 _symmetry_equiv_pos_as_xyz
  1  'x, y, z'
loop_
 _atom_site_type_symbol
 _atom_site_label
 _atom_site_symmetry_multiplicity
 _atom_site_fract_x
 _atom_site_fract_y
 _atom_site_fract_z
 _atom_site_occupancy
  Si  Si1  1  0.274403  0.505878  0.235620  1
  Si  Si2  1  0.725623  0.493942  0.764334  1
  Si  Si3  1  0.257994  0.549839  0.910154  1
  Si  Si4  1  0.742033  0.449981  0.089799  1
  Si  Si5  1  0.317646  0.383790  0.696311  1
  Si  Si6  1  0.682380  0.616030  0.303643  1
  Si  Si7  1  0.127440  0.426927  0.435061  1
  Si  Si8  1  0.872586  0.572893  0.564893  1
  Si  Si9  1  0.407987  0.153048  0.730119  1
  Si  Si10  1  0.592039  0.846772  0.269834  1
  Si  Si11  1  0.333334  0.868860  0.658365  1
  Si  Si12  1  0.666692  0.130960  0.341588  1
  Si  Si13  1  0.127379  0.652760  0.635843  1
  Si  Si14  1  0.872647  0.347061  0.364111  1
  Si  Si15  1  0.476923  0.395826  0.289408  1
  Si  Si16  1  0.523103  0.603994  0.710546  1
  Si  Si17  1  0.465018  0.764580  0.931897  1
  Si  Si18  1  0.535008  0.235240  0.068056  1
  Si  Si19  1  0.428402  0.743169  0.445748  1
  Si  Si20  1  0.571625  0.256651  0.554205  1
  O  O21  1  0.234530  0.518294  0.062019  1
  O  O22  1  0.765497  0.481526  0.937934  1
  O  O23  1  0.363742  0.430139  0.264665  1
  O  O24  1  0.636285  0.569680  0.735289  1
  O  O25  1  0.334924  0.637979  0.328471  1
  O  O26  1  0.665103  0.361842  0.671483  1
  O  O27  1  0.175339  0.448332  0.298789  1
  O  O28  1  0.824687  0.551488  0.701164  1
  O  O29  1  0.367138  0.660740  0.953699  1
  O  O30  1  0.632888  0.339080  0.046255  1
  O  O31  1  0.169265  0.597037  0.788147  1
  O  O32  1  0.830761  0.402783  0.211806  1
  O  O33  1  0.287535  0.440777  0.830753  1
  O  O34  1  0.712491  0.559044  0.169201  1
  O  O35  1  0.340567  0.252774  0.709105  1
  O  O36  1  0.659459  0.747046  0.290849  1
  O  O37  1  0.424007  0.482961  0.685760  1
  O  O38  1  0.576019  0.516859  0.314194  1
  O  O39  1  0.213816  0.375644  0.554126  1
  O  O40  1  0.786210  0.624177  0.445827  1
  O  O41  1  0.134583  0.558141  0.512259  1
  O  O42  1  0.865443  0.441679  0.487695  1
  O  O43  1  0.000026  0.350936  0.395333  1
  O  O44  1  0.000000  0.648885  0.604621  1
  O  O45  1  0.340751  0.012348  0.672896  1
  O  O46  1  0.659276  0.987472  0.327057  1
  O  O47  1  0.495072  0.185333  0.642312  1
  O  O48  1  0.504954  0.814487  0.357641  1
  O  O49  1  0.465719  0.165467  0.905689  1
  O  O50  1  0.534308  0.834353  0.094265  1
  O  O51  1  0.411190  0.844044  0.811972  1
  O  O52  1  0.588836  0.155777  0.187981  1
  O  O53  1  0.213035  0.780992  0.637820  1
  O  O54  1  0.786991  0.218828  0.362133  1
  O  O55  1  0.377317  0.826411  0.529890  1
  O  O56  1  0.622709  0.173409  0.470063  1
  O  O57  1  0.475567  0.310258  0.149735  1
  O  O58  1  0.524460  0.689562  0.850218  1
  O  O59  1  0.505642  0.324565  0.430570  1
  O  O60  1  0.494385  0.675255  0.569383  1
