# generated using pymatgen
data_SiO2
_symmetry_space_group_name_H-M   'P 1'
_cell_length_a   13.71900357
_cell_length_b   13.71920629
_cell_length_c   40.89185315
_cell_angle_alpha   90.00000000
_cell_angle_beta   90.00000000
_cell_angle_gamma   120.00000000
_symmetry_Int_Tables_number   1
_chemical_formula_structural   SiO2
_chemical_formula_sum   'Si120 O240'
_cell_volume   6665.28892286
_cell_formula_units_Z   120
loop_
 _symmetry_equiv_pos_site_id
 _symmetry_equiv_pos_as_xyz
  1  'x, y, z'
loop_
 _atom_site_type_symbol
 _atom_site_label
 _atom_site_symmetry_multiplicity
 _atom_site_fract_x
 _atom_site_fract_y
 _atom_site_fract_z
 _atom_site_occupancy
  O  O1  1  0.004879  0.502624  0.129343  1
  Si  Si2  1  0.000246  0.224820  0.000063  1
  O  O3  1  0.718960  0.953122  0.090507  1
  O  O4  1  0.046727  0.766149  0.090736  1
  O  O5  1  0.233322  0.279590  0.090779  1
  O  O6  1  0.046818  0.279557  0.090849  1
  O  O7  1  0.233820  0.952802  0.090467  1
  O  O8  1  0.719055  0.766129  0.090614  1
  O  O9  1  0.628547  0.072997  0.080229  1
  O  O10  1  0.927953  0.556120  0.079862  1
  O  O11  1  0.443525  0.371579  0.080107  1
  O  O12  1  0.929658  0.372446  0.079840  1
  O  O13  1  0.444013  0.072012  0.080084  1
  O  O14  1  0.627971  0.555856  0.080080  1
  O  O15  1  0.840457  0.159815  0.076129  1
  O  O16  1  0.840194  0.680614  0.076152  1
  O  O17  1  0.319325  0.159380  0.076021  1
  O  O18  1  0.723006  0.020275  0.032102  1
  O  O19  1  0.980344  0.704057  0.032160  1
  O  O20  1  0.296628  0.276871  0.032164  1
  O  O21  1  0.980989  0.276256  0.032214  1
  O  O22  1  0.296982  0.019752  0.031995  1
  O  O23  1  0.722945  0.702954  0.032134  1
  O  O24  1  0.159510  0.318396  0.143506  1
  O  O25  1  0.683817  0.842458  0.143444  1
  O  O26  1  0.158906  0.842211  0.143471  1
  O  O27  1  0.062026  0.123484  0.118366  1
  O  O28  1  0.877244  0.939021  0.116875  1
  O  O29  1  0.062006  0.939004  0.117162  1
  O  O30  1  0.496306  0.992663  0.129299  1
  O  O31  1  0.496692  0.502860  0.129351  1
  O  O32  1  0.520790  0.667178  0.166612  1
  Si  Si33  1  0.999684  0.999432  0.130048  1
  Si  Si34  1  0.666804  0.333339  0.127708  1
  O  O35  1  0.145608  0.666445  0.166649  1
  O  O36  1  0.602526  0.207242  0.117254  1
  O  O37  1  0.791154  0.394009  0.115715  1
  O  O38  1  0.603749  0.395666  0.116606  1
  O  O39  1  0.105139  0.895406  0.005116  1
  O  O40  1  0.105500  0.209805  0.005072  1
  O  O41  1  0.788863  0.894351  0.005308  1
  Si  Si42  1  0.774397  0.999868  0.000085  1
  Si  Si43  1  0.724857  0.050740  0.069362  1
  Si  Si44  1  0.949659  0.674829  0.069360  1
  Si  Si45  1  0.325057  0.274663  0.069412  1
  Si  Si46  1  0.950356  0.274735  0.069416  1
  Si  Si47  1  0.325546  0.050158  0.069256  1
  Si  Si48  1  0.724740  0.674435  0.069392  1
  Si  Si49  1  0.126142  0.251596  0.110918  1
  Si  Si50  1  0.748320  0.874401  0.110413  1
  Si  Si51  1  0.126066  0.874294  0.110519  1
  Si  Si52  1  0.462745  0.925560  0.162243  1
  Si  Si53  1  0.072102  0.536449  0.162243  1
  Si  Si54  1  0.463570  0.537127  0.162232  1
  Si  Si55  1  0.542993  0.086339  0.102296  1
  Si  Si56  1  0.913317  0.456412  0.101767  1
  Si  Si57  1  0.543048  0.456447  0.102105  1
  Si  Si58  1  0.774088  0.774257  0.000043  1
  Si  Si59  1  0.999936  0.775060  0.000047  1
  O  O60  1  0.332737  0.851287  0.166659  1
  O  O61  1  0.671119  0.337271  0.165548  1
  O  O62  1  0.038432  0.260257  0.253131  1
  O  O63  1  0.038818  0.777290  0.253425  1
  O  O64  1  0.947867  0.379900  0.242707  1
  O  O65  1  0.620056  0.566847  0.242618  1
  O  O66  1  0.433641  0.053279  0.242800  1
  O  O67  1  0.620286  0.053649  0.242359  1
  O  O68  1  0.433039  0.380108  0.242762  1
  O  O69  1  0.947935  0.566999  0.242994  1
  O  O70  1  0.738878  0.776974  0.253403  1
  O  O71  1  0.223440  0.961270  0.253423  1
  O  O72  1  0.737301  0.960725  0.253518  1
  O  O73  1  0.222766  0.260755  0.253087  1
  O  O74  1  0.826450  0.173312  0.257205  1
  O  O75  1  0.826609  0.652477  0.257258  1
  O  O76  1  0.347541  0.173541  0.257331  1
  O  O77  1  0.943829  0.313172  0.301161  1
  O  O78  1  0.686468  0.629344  0.301181  1
  O  O79  1  0.370214  0.056433  0.301368  1
  O  O80  1  0.685585  0.056998  0.301069  1
  O  O81  1  0.369616  0.313330  0.301220  1
  O  O82  1  0.943707  0.630387  0.301421  1
  O  O83  1  0.506884  0.015348  0.189831  1
  O  O84  1  0.982551  0.491394  0.189933  1
  O  O85  1  0.507544  0.491622  0.189913  1
  O  O86  1  0.604469  0.209985  0.215216  1
  O  O87  1  0.789328  0.394468  0.216718  1
  O  O88  1  0.604664  0.394562  0.215761  1
  O  O89  1  0.170412  0.340742  0.204034  1
  O  O90  1  0.661534  0.830526  0.204030  1
  O  O91  1  0.169691  0.830489  0.204042  1
  O  O92  1  0.146683  0.481094  0.166670  1
  Si  Si93  1  0.667144  0.333813  0.203318  1
  O  O94  1  0.063685  0.126048  0.215920  1
  O  O95  1  0.875369  0.938945  0.217443  1
  O  O96  1  0.063211  0.938047  0.217141  1
  O  O97  1  0.561333  0.437994  0.328132  1
  O  O98  1  0.561448  0.123772  0.328371  1
  O  O99  1  0.877792  0.438838  0.328096  1
  Si  Si100  1  0.999963  0.999750  0.205656  1
  Si  Si101  1  0.942011  0.282458  0.263933  1
  Si  Si102  1  0.717118  0.658302  0.263962  1
  Si  Si103  1  0.341838  0.058344  0.264100  1
  Si  Si104  1  0.716510  0.058432  0.263901  1
  Si  Si105  1  0.341244  0.282790  0.263959  1
  Si  Si106  1  0.942056  0.658757  0.264137  1
  Si  Si107  1  0.540646  0.081735  0.222499  1
  Si  Si108  1  0.918379  0.458959  0.223026  1
  Si  Si109  1  0.540638  0.459046  0.222722  1
  Si  Si110  1  0.203696  0.408040  0.171125  1
  Si  Si111  1  0.594288  0.797115  0.171133  1
  Si  Si112  1  0.202833  0.796479  0.171119  1
  Si  Si113  1  0.123760  0.246837  0.230969  1
  Si  Si114  1  0.753375  0.876691  0.231530  1
  Si  Si115  1  0.123698  0.876781  0.231425  1
  Si  Si116  1  0.892503  0.333423  0.333207  1
  Si  Si117  1  0.666577  0.108464  0.333252  1
  Si  Si118  1  0.666638  0.558206  0.333286  1
  O  O119  1  0.519685  0.852486  0.166822  1
  O  O120  1  0.333675  0.482366  0.166677  1
  O  O121  1  0.996761  0.994916  0.167817  1
  O  O122  1  0.386329  0.285919  0.423843  1
  O  O123  1  0.713863  0.099347  0.423813  1
  O  O124  1  0.900693  0.613211  0.424300  1
  O  O125  1  0.714216  0.613751  0.423837  1
  O  O126  1  0.900695  0.286198  0.423857  1
  O  O127  1  0.386849  0.099369  0.424302  1
  O  O128  1  0.295406  0.405423  0.413548  1
  O  O129  1  0.595571  0.889358  0.413033  1
  O  O130  1  0.110787  0.704832  0.413506  1
  O  O131  1  0.595001  0.704787  0.413329  1
  O  O132  1  0.110792  0.404772  0.413172  1
  O  O133  1  0.295140  0.889195  0.413597  1
  O  O134  1  0.507509  0.492660  0.409475  1
  O  O135  1  0.507239  0.013503  0.409421  1
  O  O136  1  0.986394  0.492732  0.409401  1
  O  O137  1  0.389802  0.353428  0.365453  1
  O  O138  1  0.647088  0.037078  0.365280  1
  O  O139  1  0.963075  0.610043  0.365642  1
  O  O140  1  0.646966  0.609674  0.365386  1
  O  O141  1  0.963452  0.352926  0.365326  1
  O  O142  1  0.389752  0.036658  0.365675  1
  O  O143  1  0.824801  0.650889  0.476841  1
  O  O144  1  0.348888  0.175133  0.476811  1
  O  O145  1  0.824509  0.175264  0.476777  1
  O  O146  1  0.727928  0.456597  0.451134  1
  O  O147  1  0.543277  0.272028  0.451232  1
  O  O148  1  0.727870  0.271937  0.450017  1
  O  O149  1  0.163401  0.327394  0.462694  1
  O  O150  1  0.672045  0.836083  0.462651  1
  O  O151  1  0.162836  0.836622  0.462630  1
  Si  Si152  1  0.666838  0.333140  0.463374  1
  O  O153  1  0.999268  0.186406  0.499995  1
  Si  Si154  1  0.333503  0.666656  0.461040  1
  O  O155  1  0.270018  0.541539  0.449712  1
  O  O156  1  0.458146  0.729691  0.449288  1
  O  O157  1  0.270159  0.729422  0.450595  1
  O  O158  1  0.771960  0.228632  0.338349  1
  O  O159  1  0.771699  0.542924  0.338495  1
  O  O160  1  0.455587  0.227938  0.338646  1
  Si  Si161  1  0.892346  0.558807  0.333461  1
  Si  Si162  1  0.391944  0.383484  0.402752  1
  Si  Si163  1  0.616698  0.007842  0.402498  1
  Si  Si164  1  0.992143  0.608052  0.402840  1
  Si  Si165  1  0.616798  0.608035  0.402651  1
  Si  Si166  1  0.992277  0.383362  0.402557  1
  Si  Si167  1  0.391901  0.007768  0.402890  1
  Si  Si168  1  0.792726  0.585026  0.444071  1
  Si  Si169  1  0.414922  0.207301  0.444073  1
  Si  Si170  1  0.792462  0.207493  0.443704  1
  Si  Si171  1  0.129322  0.260175  0.495604  1
  Si  Si172  1  0.739215  0.870174  0.495569  1
  Si  Si173  1  0.129325  0.870376  0.495538  1
  Si  Si174  1  0.210093  0.419875  0.435367  1
  Si  Si175  1  0.580103  0.789796  0.435170  1
  Si  Si176  1  0.209827  0.789981  0.435623  1
  O  O177  1  0.185382  0.000337  0.499917  1
  O  O178  1  0.812994  0.000241  0.499936  1
  O  O179  1  0.336657  0.665655  0.498883  1
  Si  Si180  1  0.440858  0.107820  0.333549  1
  Si  Si181  1  0.440794  0.333216  0.333335  1
  O  O182  1  0.014367  0.506785  0.590511  1
  Si  Si183  1  0.008355  0.391483  0.597406  1
  Si  Si184  1  0.008391  0.616224  0.597126  1
  O  O185  1  0.036946  0.389954  0.634662  1
  O  O186  1  0.037188  0.646938  0.634354  1
  O  O187  1  0.614158  0.713092  0.575988  1
  O  O188  1  0.286761  0.899912  0.575943  1
  O  O189  1  0.100100  0.385741  0.576245  1
  O  O190  1  0.287177  0.386331  0.575939  1
  O  O191  1  0.100046  0.713182  0.575817  1
  O  O192  1  0.614439  0.900130  0.576305  1
  O  O193  1  0.705668  0.594627  0.586816  1
  O  O194  1  0.405684  0.110263  0.586428  1
  O  O195  1  0.889878  0.294457  0.586785  1
  O  O196  1  0.405393  0.294458  0.586678  1
  O  O197  1  0.889780  0.594241  0.586424  1
  O  O198  1  0.705499  0.110266  0.586874  1
  O  O199  1  0.493425  0.506716  0.590691  1
  O  O200  1  0.493159  0.985695  0.590594  1
  O  O201  1  0.610228  0.647129  0.634618  1
  O  O202  1  0.353269  0.963480  0.634478  1
  O  O203  1  0.353092  0.389532  0.634579  1
  O  O204  1  0.609997  0.963128  0.634736  1
  O  O205  1  0.174420  0.349837  0.523247  1
  O  O206  1  0.649566  0.825281  0.523230  1
  O  O207  1  0.174384  0.825886  0.523186  1
  O  O208  1  0.271451  0.543700  0.549416  1
  O  O209  1  0.456129  0.728245  0.549815  1
  O  O210  1  0.271637  0.728452  0.548486  1
  O  O211  1  0.836172  0.673154  0.537403  1
  O  O212  1  0.326522  0.163413  0.537379  1
  O  O213  1  0.835650  0.163831  0.537340  1
  Si  Si214  1  0.333682  0.666596  0.536654  1
  O  O215  1  0.185295  0.186206  0.500109  1
  Si  Si216  1  0.666659  0.333217  0.538989  1
  O  O217  1  0.728718  0.458835  0.549883  1
  O  O218  1  0.540892  0.270872  0.549746  1
  O  O219  1  0.728893  0.270952  0.550856  1
  O  O220  1  0.228469  0.772169  0.661403  1
  O  O221  1  0.228290  0.456086  0.661570  1
  O  O222  1  0.543050  0.771611  0.661630  1
  Si  Si223  1  0.108281  0.666819  0.666482  1
  Si  Si224  1  0.608653  0.616230  0.597421  1
  Si  Si225  1  0.383756  0.991741  0.597210  1
  Si  Si226  1  0.383886  0.391458  0.597353  1
  Si  Si227  1  0.608486  0.991748  0.597484  1
  Si  Si228  1  0.207760  0.415001  0.556150  1
  Si  Si229  1  0.585049  0.792319  0.556258  1
  Si  Si230  1  0.207582  0.792601  0.555838  1
  Si  Si231  1  0.869447  0.740439  0.504501  1
  Si  Si232  1  0.259313  0.130229  0.504463  1
  Si  Si233  1  0.869234  0.130261  0.504420  1
  Si  Si234  1  0.790148  0.580087  0.564569  1
  Si  Si235  1  0.419732  0.209713  0.564505  1
  Si  Si236  1  0.789962  0.209936  0.564859  1
  Si  Si237  1  0.333342  0.892573  0.666652  1
  O  O238  1  0.813255  0.814267  0.500107  1
  O  O239  1  0.999392  0.814393  0.500030  1
  O  O240  1  0.669084  0.331512  0.501145  1
  Si  Si241  1  0.000111  0.999777  0.794379  1
  O  O242  1  0.017005  0.508586  0.810136  1
  O  O243  1  0.052663  0.619444  0.757123  1
  O  O244  1  0.379785  0.433336  0.757531  1
  O  O245  1  0.567079  0.947666  0.757259  1
  O  O246  1  0.379831  0.947218  0.757264  1
  O  O247  1  0.566354  0.619793  0.757426  1
  O  O248  1  0.052409  0.432448  0.757348  1
  O  O249  1  0.960759  0.737605  0.746347  1
  O  O250  1  0.261841  0.223152  0.746802  1
  O  O251  1  0.777374  0.038249  0.746875  1
  O  O252  1  0.260571  0.038197  0.746803  1
  O  O253  1  0.776541  0.738083  0.746660  1
  O  O254  1  0.961539  0.222380  0.746711  1
  O  O255  1  0.173282  0.826134  0.742677  1
  O  O256  1  0.173635  0.347182  0.742765  1
  O  O257  1  0.652371  0.826189  0.742862  1
  O  O258  1  0.056720  0.686329  0.698576  1
  O  O259  1  0.313953  0.370243  0.698892  1
  O  O260  1  0.630061  0.943436  0.698869  1
  O  O261  1  0.313125  0.943729  0.698747  1
  O  O262  1  0.629317  0.686199  0.698859  1
  O  O263  1  0.056570  0.370188  0.698824  1
  O  O264  1  0.491799  0.983447  0.810093  1
  O  O265  1  0.492615  0.507810  0.810199  1
  O  O266  1  0.395103  0.789703  0.783807  1
  O  O267  1  0.210545  0.604945  0.783663  1
  O  O268  1  0.395171  0.605081  0.784910  1
  O  O269  1  0.831215  0.661645  0.795996  1
  O  O270  1  0.340234  0.169939  0.795982  1
  O  O271  1  0.830450  0.170297  0.796003  1
  O  O272  1  0.852713  0.334084  0.833287  1
  Si  Si273  1  0.333116  0.666966  0.796710  1
  O  O274  1  0.938578  0.875398  0.782405  1
  O  O275  1  0.125865  0.063980  0.783612  1
  O  O276  1  0.937510  0.062908  0.783594  1
  O  O277  1  0.438347  0.561327  0.671783  1
  O  O278  1  0.438402  0.877372  0.671976  1
  O  O279  1  0.123708  0.561861  0.671739  1
  Si  Si280  1  0.333407  0.440907  0.666702  1
  Si  Si281  1  0.058179  0.716568  0.735820  1
  Si  Si282  1  0.283255  0.341601  0.736128  1
  Si  Si283  1  0.658777  0.941749  0.736115  1
  Si  Si284  1  0.282576  0.941641  0.736009  1
  Si  Si285  1  0.658016  0.716648  0.736097  1
  Si  Si286  1  0.058210  0.341035  0.736029  1
  Si  Si287  1  0.459030  0.918468  0.777152  1
  Si  Si288  1  0.081689  0.540703  0.777140  1
  Si  Si289  1  0.459076  0.540785  0.777555  1
  Si  Si290  1  0.797861  0.594554  0.828923  1
  Si  Si291  1  0.407388  0.203466  0.828908  1
  Si  Si292  1  0.796770  0.204038  0.828884  1
  Si  Si293  1  0.876695  0.753268  0.768434  1
  Si  Si294  1  0.247023  0.123659  0.768855  1
  Si  Si295  1  0.876731  0.123347  0.768881  1
  O  O296  1  0.666721  0.147294  0.833327  1
  O  O297  1  0.997825  0.995381  0.832222  1
  Si  Si298  1  0.558514  0.892038  0.666828  1
  Si  Si299  1  0.558529  0.666617  0.666698  1
  Si  Si300  1  0.108182  0.441345  0.666737  1
  O  O301  1  0.482077  0.333396  0.833302  1
  O  O302  1  0.667919  0.520025  0.833323  1
  O  O303  1  0.019540  0.295858  0.967969  1
  O  O304  1  0.019795  0.723428  0.968013  1
  O  O305  1  0.280023  0.046585  0.909215  1
  O  O306  1  0.953030  0.233249  0.909422  1
  O  O307  1  0.765547  0.718892  0.909466  1
  O  O308  1  0.952505  0.718722  0.909566  1
  O  O309  1  0.766637  0.046495  0.909200  1
  O  O310  1  0.280321  0.233523  0.909373  1
  O  O311  1  0.371546  0.927866  0.919881  1
  O  O312  1  0.071302  0.443337  0.920166  1
  O  O313  1  0.555377  0.628236  0.919916  1
  O  O314  1  0.071819  0.627884  0.920149  1
  O  O315  1  0.556593  0.928940  0.920158  1
  O  O316  1  0.371493  0.443860  0.919731  1
  O  O317  1  0.159303  0.840093  0.923863  1
  O  O318  1  0.159513  0.319196  0.923948  1
  O  O319  1  0.680361  0.840242  0.923984  1
  O  O320  1  0.276689  0.980070  0.967760  1
  O  O321  1  0.702774  0.722850  0.967958  1
  O  O322  1  0.703993  0.980718  0.967874  1
  O  O323  1  0.277247  0.297065  0.967854  1
  O  O324  1  0.842072  0.684227  0.856584  1
  O  O325  1  0.317759  0.159326  0.856546  1
  O  O326  1  0.841742  0.159460  0.856539  1
  O  O327  1  0.938634  0.877423  0.883416  1
  O  O328  1  0.123389  0.062089  0.882168  1
  O  O329  1  0.938869  0.062151  0.882130  1
  O  O330  1  0.503194  0.005597  0.870669  1
  O  O331  1  0.994603  0.497127  0.870713  1
  O  O332  1  0.504038  0.496609  0.870734  1
  O  O333  1  0.480604  0.146728  0.833432  1
  Si  Si334  1  0.999861  0.999576  0.869991  1
  O  O335  1  0.330700  0.668642  0.834482  1
  O  O336  1  0.397059  0.791590  0.883843  1
  O  O337  1  0.208545  0.603630  0.883978  1
  O  O338  1  0.396204  0.603390  0.882673  1
  O  O339  1  0.895082  0.104486  0.995012  1
  O  O340  1  0.894608  0.789927  0.994857  1
  O  O341  1  0.211196  0.105577  0.994733  1
  Si  Si342  1  0.333299  0.666692  0.872322  1
  Si  Si343  1  0.274675  0.949562  0.930513  1
  Si  Si344  1  0.049996  0.324850  0.930743  1
  Si  Si345  1  0.673985  0.724707  0.930720  1
  Si  Si346  1  0.050065  0.724741  0.930773  1
  Si  Si347  1  0.675086  0.950011  0.930664  1
  Si  Si348  1  0.275013  0.325389  0.930586  1
  Si  Si349  1  0.873913  0.748350  0.889688  1
  Si  Si350  1  0.251773  0.126042  0.889295  1
  Si  Si351  1  0.874286  0.125933  0.889267  1
  Si  Si352  1  0.536782  0.072935  0.837786  1
  Si  Si353  1  0.927390  0.464030  0.837802  1
  Si  Si354  1  0.537895  0.463343  0.837796  1
  Si  Si355  1  0.456898  0.913404  0.898071  1
  Si  Si356  1  0.086665  0.543115  0.898160  1
  Si  Si357  1  0.456703  0.543071  0.897700  1
  Si  Si358  1  0.225739  0.000106  0.999908  1
  Si  Si359  1  0.226091  0.225715  0.999953  1
  O  O360  1  0.854291  0.521006  0.833431  1
