# generated using pymatgen
data_SiO2
_symmetry_space_group_name_H-M   'P 1'
_cell_length_a   18.96410246
_cell_length_b   23.10383607
_cell_length_c   8.50858376
_cell_angle_alpha   90.00000000
_cell_angle_beta   90.00000000
_cell_angle_gamma   90.00000000
_symmetry_Int_Tables_number   1
_chemical_formula_structural   SiO2
_chemical_formula_sum   'Si64 O128'
_cell_volume   3727.98079275
_cell_formula_units_Z   64
loop_
 _symmetry_equiv_pos_site_id
 _symmetry_equiv_pos_as_xyz
  1  'x, y, z'
loop_
 _atom_site_type_symbol
 _atom_site_label
 _atom_site_symmetry_multiplicity
 _atom_site_fract_x
 _atom_site_fract_y
 _atom_site_fract_z
 _atom_site_occupancy
  O  O1  1  0.499929  0.323926  0.483468  1
  O  O2  1  0.000051  0.823955  0.483501  1
  O  O3  1  0.500128  0.675937  0.983450  1
  O  O4  1  0.000001  0.175907  0.983518  1
  O  O5  1  0.500131  0.675936  0.516663  1
  O  O6  1  0.000003  0.175906  0.516629  1
  O  O7  1  0.499927  0.323926  0.016685  1
  O  O8  1  0.000047  0.823955  0.016610  1
  O  O9  1  0.569027  0.231437  0.515389  1
  O  O10  1  0.069103  0.731450  0.515409  1
  O  O11  1  0.430954  0.231418  0.515446  1
  O  O12  1  0.931032  0.731441  0.515372  1
  O  O13  1  0.569097  0.768448  0.015416  1
  O  O14  1  0.069020  0.268420  0.015398  1
  O  O15  1  0.431014  0.768425  0.015260  1
  O  O16  1  0.930950  0.268412  0.015428  1
  O  O17  1  0.431017  0.768424  0.484853  1
  O  O18  1  0.930951  0.268411  0.484728  1
  O  O19  1  0.569100  0.768447  0.484691  1
  O  O20  1  0.069021  0.268420  0.484753  1
  O  O21  1  0.430954  0.231418  0.984708  1
  O  O22  1  0.931029  0.731442  0.984733  1
  O  O23  1  0.569035  0.231435  0.984883  1
  O  O24  1  0.069100  0.731451  0.984703  1
  O  O25  1  0.500009  0.273653  0.750083  1
  O  O26  1  0.000051  0.773673  0.750054  1
  O  O27  1  0.500050  0.726211  0.250056  1
  O  O28  1  0.999999  0.226188  0.250076  1
  O  O29  1  0.067504  0.081870  0.500930  1
  O  O30  1  0.567658  0.581869  0.501724  1
  O  O31  1  0.932491  0.081881  0.501135  1
  O  O32  1  0.432653  0.581925  0.500250  1
  O  O33  1  0.067561  0.917980  0.001080  1
  O  O34  1  0.567400  0.417939  0.000272  1
  O  O35  1  0.932548  0.917993  0.000961  1
  O  O36  1  0.432394  0.417991  0.001728  1
  O  O37  1  0.932552  0.917992  0.499165  1
  O  O38  1  0.432397  0.417990  0.498425  1
  O  O39  1  0.067564  0.917979  0.499032  1
  O  O40  1  0.567403  0.417939  0.499874  1
  O  O41  1  0.932489  0.081881  0.999006  1
  O  O42  1  0.432649  0.581926  0.999866  1
  O  O43  1  0.067502  0.081871  0.999217  1
  O  O44  1  0.567655  0.581869  0.998406  1
  O  O45  1  0.197301  0.106317  0.484617  1
  O  O46  1  0.697375  0.606333  0.484467  1
  O  O47  1  0.802691  0.106306  0.484615  1
  O  O48  1  0.302792  0.606331  0.484643  1
  O  O49  1  0.197365  0.893556  0.984613  1
  O  O50  1  0.697259  0.393529  0.984657  1
  O  O51  1  0.802754  0.893546  0.984589  1
  O  O52  1  0.302676  0.393529  0.984484  1
  O  O53  1  0.802758  0.893545  0.515529  1
  O  O54  1  0.302677  0.393530  0.515663  1
  O  O55  1  0.197368  0.893554  0.515505  1
  O  O56  1  0.697261  0.393528  0.515497  1
  O  O57  1  0.802689  0.106307  0.015536  1
  O  O58  1  0.302789  0.606333  0.015478  1
  O  O59  1  0.197300  0.106316  0.015527  1
  O  O60  1  0.697372  0.606334  0.015654  1
  O  O61  1  0.155164  0.999935  0.500144  1
  O  O62  1  0.655183  0.499843  0.499320  1
  O  O63  1  0.844893  0.999926  0.499986  1
  O  O64  1  0.344874  0.500019  0.500816  1
  O  O65  1  0.155160  0.999936  0.999984  1
  O  O66  1  0.655181  0.499844  0.000817  1
  O  O67  1  0.844891  0.999927  0.000145  1
  O  O68  1  0.344870  0.500019  0.999318  1
  O  O69  1  0.134554  0.060051  0.250070  1
  O  O70  1  0.634226  0.560318  0.250065  1
  O  O71  1  0.865550  0.060134  0.250071  1
  O  O72  1  0.365277  0.559774  0.250061  1
  O  O73  1  0.134525  0.939730  0.750059  1
  O  O74  1  0.634773  0.440088  0.750073  1
  O  O75  1  0.865521  0.939809  0.750062  1
  O  O76  1  0.365823  0.439544  0.750073  1
  O  O77  1  0.865863  0.717789  0.250055  1
  O  O78  1  0.365843  0.217758  0.250078  1
  O  O79  1  0.134232  0.717822  0.250054  1
  O  O80  1  0.634138  0.217770  0.250008  1
  O  O81  1  0.865818  0.282041  0.750078  1
  O  O82  1  0.365953  0.782078  0.750055  1
  O  O83  1  0.134187  0.282071  0.750077  1
  O  O84  1  0.634216  0.782110  0.750055  1
  O  O85  1  0.820946  0.787497  0.453964  1
  O  O86  1  0.320853  0.287463  0.453937  1
  O  O87  1  0.179186  0.787502  0.453980  1
  O  O88  1  0.679129  0.287470  0.453973  1
  O  O89  1  0.820867  0.212359  0.954001  1
  O  O90  1  0.320921  0.712387  0.953951  1
  O  O91  1  0.179108  0.212365  0.953985  1
  O  O92  1  0.679198  0.712403  0.953916  1
  O  O93  1  0.179109  0.212366  0.546167  1
  O  O94  1  0.679201  0.712402  0.546197  1
  O  O95  1  0.820869  0.212358  0.546154  1
  O  O96  1  0.320923  0.712386  0.546160  1
  O  O97  1  0.179183  0.787504  0.046130  1
  O  O98  1  0.679130  0.287474  0.046181  1
  O  O99  1  0.820943  0.787497  0.046148  1
  O  O100  1  0.320852  0.287462  0.046218  1
  O  O101  1  0.803935  0.681161  0.501019  1
  O  O102  1  0.303870  0.181124  0.500928  1
  O  O103  1  0.196202  0.681151  0.500901  1
  O  O104  1  0.696108  0.181124  0.500948  1
  O  O105  1  0.803850  0.318710  0.000928  1
  O  O106  1  0.303943  0.818736  0.000917  1
  O  O107  1  0.196117  0.318702  0.001035  1
  O  O108  1  0.696183  0.818741  0.000919  1
  O  O109  1  0.196118  0.318702  0.499120  1
  O  O110  1  0.696186  0.818741  0.499197  1
  O  O111  1  0.803852  0.318709  0.499225  1
  O  O112  1  0.303946  0.818735  0.499189  1
  O  O113  1  0.196199  0.681152  0.999205  1
  O  O114  1  0.696110  0.181123  0.999198  1
  O  O115  1  0.803932  0.681161  0.999097  1
  O  O116  1  0.303869  0.181123  0.999227  1
  O  O117  1  0.737196  0.649715  0.750059  1
  O  O118  1  0.237209  0.149766  0.750075  1
  O  O119  1  0.262871  0.649762  0.750056  1
  O  O120  1  0.762783  0.149753  0.750076  1
  O  O121  1  0.737178  0.350099  0.250077  1
  O  O122  1  0.237278  0.850103  0.250055  1
  O  O123  1  0.262852  0.350147  0.250076  1
  O  O124  1  0.762852  0.850103  0.250058  1
  O  O125  1  0.000003  0.892503  0.250058  1
  O  O126  1  0.500451  0.392500  0.250076  1
  O  O127  1  0.000084  0.107359  0.750073  1
  O  O128  1  0.499596  0.607362  0.750060  1
  Si  Si129  1  0.857110  0.726994  0.431523  1
  Si  Si130  1  0.357048  0.226971  0.431529  1
  Si  Si131  1  0.143017  0.727002  0.431521  1
  Si  Si132  1  0.642940  0.226978  0.431510  1
  Si  Si133  1  0.857035  0.272860  0.931544  1
  Si  Si134  1  0.357108  0.772881  0.931498  1
  Si  Si135  1  0.142942  0.272867  0.931545  1
  Si  Si136  1  0.643005  0.772895  0.931507  1
  Si  Si137  1  0.142942  0.272868  0.568609  1
  Si  Si138  1  0.643008  0.772895  0.568605  1
  Si  Si139  1  0.857036  0.272858  0.568611  1
  Si  Si140  1  0.357110  0.772880  0.568612  1
  Si  Si141  1  0.143014  0.727003  0.068587  1
  Si  Si142  1  0.642948  0.226979  0.068612  1
  Si  Si143  1  0.857108  0.726995  0.068587  1
  Si  Si144  1  0.357048  0.226970  0.068627  1
  Si  Si145  1  0.730867  0.660169  0.568751  1
  Si  Si146  1  0.230813  0.160159  0.568763  1
  Si  Si147  1  0.269248  0.660163  0.568750  1
  Si  Si148  1  0.769169  0.160149  0.568761  1
  Si  Si149  1  0.730803  0.339699  0.068771  1
  Si  Si150  1  0.230885  0.839711  0.068742  1
  Si  Si151  1  0.269184  0.339694  0.068769  1
  Si  Si152  1  0.769242  0.839706  0.068745  1
  Si  Si153  1  0.269185  0.339694  0.431384  1
  Si  Si154  1  0.769245  0.839705  0.431370  1
  Si  Si155  1  0.730802  0.339695  0.431383  1
  Si  Si156  1  0.230887  0.839710  0.431369  1
  Si  Si157  1  0.269246  0.660164  0.931362  1
  Si  Si158  1  0.769170  0.160148  0.931389  1
  Si  Si159  1  0.730864  0.660169  0.931366  1
  Si  Si160  1  0.230812  0.160159  0.931388  1
  Si  Si161  1  0.139592  0.061707  0.432472  1
  Si  Si162  1  0.639606  0.561738  0.432441  1
  Si  Si163  1  0.860439  0.061726  0.432471  1
  Si  Si164  1  0.360462  0.561695  0.432480  1
  Si  Si165  1  0.139620  0.938137  0.932459  1
  Si  Si166  1  0.639590  0.438165  0.932492  1
  Si  Si167  1  0.860467  0.938156  0.932464  1
  Si  Si168  1  0.360445  0.438122  0.932449  1
  Si  Si169  1  0.860470  0.938154  0.567660  1
  Si  Si170  1  0.360447  0.438123  0.567696  1
  Si  Si171  1  0.139623  0.938135  0.567660  1
  Si  Si172  1  0.639592  0.438166  0.567655  1
  Si  Si173  1  0.860438  0.061726  0.067671  1
  Si  Si174  1  0.360459  0.561697  0.067643  1
  Si  Si175  1  0.139590  0.061706  0.067669  1
  Si  Si176  1  0.639604  0.561740  0.067687  1
  Si  Si177  1  0.499990  0.263976  0.568393  1
  Si  Si178  1  0.000061  0.763997  0.568371  1
  Si  Si179  1  0.500060  0.735890  0.068360  1
  Si  Si180  1  0.999990  0.235864  0.068393  1
  Si  Si181  1  0.500062  0.735889  0.431751  1
  Si  Si182  1  0.999992  0.235864  0.431759  1
  Si  Si183  1  0.499994  0.263973  0.931775  1
  Si  Si184  1  0.000059  0.763998  0.931737  1
  Si  Si185  1  0.000042  0.888608  0.432998  1
  Si  Si186  1  0.500026  0.388587  0.433020  1
  Si  Si187  1  0.000019  0.111254  0.933012  1
  Si  Si188  1  0.500026  0.611275  0.933005  1
  Si  Si189  1  0.000020  0.111253  0.567132  1
  Si  Si190  1  0.500029  0.611275  0.567115  1
  Si  Si191  1  0.000039  0.888608  0.067118  1
  Si  Si192  1  0.500024  0.388588  0.067131  1
