# generated using pymatgen
data_SiO2
_symmetry_space_group_name_H-M   'P 1'
_cell_length_a   13.68856018
_cell_length_b   13.69754544
_cell_length_c   11.09642844
_cell_angle_alpha   90.00000000
_cell_angle_beta   90.00000000
_cell_angle_gamma   120.00000000
_symmetry_Int_Tables_number   1
_chemical_formula_structural   SiO2
_chemical_formula_sum   'Si34 O68'
_cell_volume   1801.83229983
_cell_formula_units_Z   34
loop_
 _symmetry_equiv_pos_site_id
 _symmetry_equiv_pos_as_xyz
  1  'x, y, z'
loop_
 _atom_site_type_symbol
 _atom_site_label
 _atom_site_symmetry_multiplicity
 _atom_site_fract_x
 _atom_site_fract_y
 _atom_site_fract_z
 _atom_site_occupancy
  O  O1  1  0.100651  0.394316  0.292320  1
  O  O2  1  0.285312  0.393986  0.317865  1
  O  O3  1  0.094984  0.390485  0.694293  1
  O  O4  1  0.281748  0.392808  0.698325  1
  O  O5  1  0.184438  0.340875  0.115367  1
  O  O6  1  0.166341  0.351903  0.891349  1
  O  O7  1  0.009531  0.188412  0.008069  1
  O  O8  1  0.199918  0.198616  0.979681  1
  Si  Si9  1  0.211198  0.417092  0.228674  1
  Si  Si10  1  0.201209  0.419921  0.771276  1
  Si  Si11  1  0.139765  0.268746  0.998518  1
  Si  Si12  1  0.257036  0.125175  0.994882  1
  O  O13  1  0.322643  0.155572  0.116598  1
  O  O14  1  0.304451  0.891084  0.295781  1
  O  O15  1  0.110957  0.719143  0.294551  1
  O  O16  1  0.296212  0.905566  0.707405  1
  O  O17  1  0.120580  0.714952  0.688094  1
  O  O18  1  0.179807  0.842077  0.106907  1
  O  O19  1  0.154786  0.827264  0.882053  1
  O  O20  1  0.265948  0.722333  0.168882  1
  O  O21  1  0.278961  0.543923  0.193017  1
  O  O22  1  0.275900  0.740019  0.829632  1
  O  O23  1  0.264353  0.549203  0.796903  1
  O  O24  1  0.003724  0.638743  0.493216  1
  Si  Si25  1  0.121139  0.865673  0.999403  1
  O  O26  1  0.000600  0.505635  0.653057  1
  O  O27  1  0.167627  0.996041  0.993252  1
  O  O28  1  0.329269  0.648743  0.995304  1
  Si  Si29  1  0.215523  0.794931  0.215318  1
  Si  Si30  1  0.211857  0.797991  0.777852  1
  Si  Si31  1  0.003707  0.621640  0.353923  1
  O  O32  1  0.004865  0.509510  0.332319  1
  Si  Si33  1  0.007856  0.621855  0.632080  1
  Si  Si34  1  0.331577  0.667391  0.857218  1
  Si  Si35  1  0.333311  0.662755  0.134314  1
  O  O36  1  0.386167  0.280467  0.303603  1
  O  O37  1  0.401088  0.104713  0.300287  1
  O  O38  1  0.387951  0.284499  0.715392  1
  O  O39  1  0.418681  0.117391  0.692084  1
  Si  Si40  1  0.396075  0.002830  0.637740  1
  O  O41  1  0.345277  0.152024  0.892219  1
  O  O42  1  0.531348  0.271653  0.170767  1
  O  O43  1  0.549305  0.282421  0.823117  1
  Si  Si44  1  0.659925  0.332841  0.142484  1
  Si  Si45  1  0.381269  0.380590  0.648348  1
  O  O46  1  0.368606  0.358041  0.509590  1
  O  O47  1  0.496408  0.489137  0.348363  1
  O  O48  1  0.493774  0.493738  0.670075  1
  Si  Si49  1  0.409354  0.202289  0.221668  1
  Si  Si50  1  0.424591  0.207953  0.781693  1
  Si  Si51  1  0.382133  0.378103  0.370439  1
  O  O52  1  0.512104  0.006917  0.340952  1
  O  O53  1  0.642150  0.005231  0.500091  1
  Si  Si54  1  0.621907  0.001046  0.360957  1
  O  O55  1  0.586672  0.696399  0.301539  1
  O  O56  1  0.602218  0.887643  0.307724  1
  O  O57  1  0.608618  0.702053  0.720460  1
  O  O58  1  0.608508  0.886280  0.692606  1
  O  O59  1  0.374122  0.996357  0.498446  1
  O  O60  1  0.657909  0.838334  0.897255  1
  O  O61  1  0.459119  0.736091  0.171982  1
  O  O62  1  0.456175  0.729285  0.814195  1
  O  O63  1  0.616941  0.629007  0.508098  1
  Si  Si64  1  0.607755  0.605011  0.646841  1
  O  O65  1  0.503442  0.992486  0.658088  1
  Si  Si66  1  0.580429  0.787599  0.224348  1
  Si  Si67  1  0.583877  0.789050  0.782536  1
  Si  Si68  1  0.618061  0.995849  0.638606  1
  Si  Si69  1  0.603766  0.606764  0.369035  1
  Si  Si70  1  0.395699  0.999499  0.359551  1
  O  O71  1  0.720084  0.102141  0.293113  1
  O  O72  1  0.887225  0.300472  0.295574  1
  O  O73  1  0.711508  0.100515  0.705377  1
  O  O74  1  0.881688  0.295694  0.690217  1
  O  O75  1  0.837779  0.183774  0.103096  1
  O  O76  1  0.849148  0.174474  0.879606  1
  O  O77  1  0.711635  0.259251  0.182395  1
  O  O78  1  0.722162  0.451326  0.202948  1
  O  O79  1  0.723357  0.259114  0.832959  1
  O  O80  1  0.747080  0.456211  0.809561  1
  O  O81  1  0.996228  0.373791  0.492291  1
  O  O82  1  0.676768  0.350478  0.004364  1
  Si  Si83  1  0.789729  0.211096  0.216961  1
  Si  Si84  1  0.792420  0.207522  0.778114  1
  Si  Si85  1  0.878913  0.136179  0.999748  1
  O  O86  1  0.817726  0.005018  0.007407  1
  Si  Si87  1  0.998126  0.393588  0.353400  1
  Si  Si88  1  0.992687  0.389262  0.631558  1
  Si  Si89  1  0.674090  0.336668  0.865498  1
  O  O90  1  0.896972  0.612880  0.294065  1
  O  O91  1  0.707320  0.603440  0.315335  1
  O  O92  1  0.905902  0.619396  0.697539  1
  O  O93  1  0.706678  0.588577  0.691081  1
  O  O94  1  0.806366  0.649848  0.111182  1
  O  O95  1  0.823011  0.657928  0.885479  1
  O  O96  1  0.814774  0.816073  0.995266  1
  Si  Si97  1  0.859436  0.731286  0.001747  1
  O  O98  1  0.990381  0.797019  0.014311  1
  Si  Si99  1  0.783897  0.580458  0.229655  1
  Si  Si100  1  0.796351  0.582003  0.772023  1
  Si  Si101  1  0.741832  0.874169  0.004922  1
  O  O102  1  0.669404  0.830995  0.121589  1
