# generated using pymatgen
data_SiO2
_symmetry_space_group_name_H-M   'P 1'
_cell_length_a   18.55083399
_cell_length_b   7.44973890
_cell_length_c   9.93999687
_cell_angle_alpha   90.00000000
_cell_angle_beta   108.91700000
_cell_angle_gamma   90.00000000
_symmetry_Int_Tables_number   1
_chemical_formula_structural   SiO2
_chemical_formula_sum   'Si24 O48'
_cell_volume   1299.50190613
_cell_formula_units_Z   24
loop_
 _symmetry_equiv_pos_site_id
 _symmetry_equiv_pos_as_xyz
  1  'x, y, z'
loop_
 _atom_site_type_symbol
 _atom_site_label
 _atom_site_symmetry_multiplicity
 _atom_site_fract_x
 _atom_site_fract_y
 _atom_site_fract_z
 _atom_site_occupancy
  O  O1  1  0.143817  0.170954  0.770201  1
  O  O2  1  0.643619  0.670062  0.771964  1
  O  O3  1  0.856807  0.170222  0.229782  1
  O  O4  1  0.357558  0.670825  0.229129  1
  O  O5  1  0.857193  0.828472  0.230830  1
  O  O6  1  0.357395  0.329207  0.228999  1
  O  O7  1  0.143940  0.829239  0.770284  1
  O  O8  1  0.643241  0.328545  0.770831  1
  O  O9  1  0.248091  0.254383  0.001790  1
  O  O10  1  0.753321  0.745975  0.998556  1
  O  O11  1  0.752382  0.254019  0.998374  1
  O  O12  1  0.248379  0.745615  0.001680  1
  O  O13  1  0.276216  0.246571  0.767185  1
  O  O14  1  0.773006  0.754141  0.758346  1
  O  O15  1  0.724504  0.246562  0.233167  1
  O  O16  1  0.227851  0.754330  0.241113  1
  O  O17  1  0.724600  0.752903  0.232623  1
  O  O18  1  0.227767  0.245323  0.241454  1
  O  O19  1  0.276237  0.753414  0.766853  1
  O  O20  1  0.772993  0.245314  0.758971  1
  O  O21  1  0.197434  0.500083  0.816230  1
  O  O22  1  0.696246  0.999436  0.823008  1
  O  O23  1  0.803481  0.499456  0.183770  1
  O  O24  1  0.304631  0.000024  0.177013  1
  O  O25  1  0.171287  0.500144  0.347504  1
  O  O26  1  0.672847  0.999462  0.355925  1
  O  O27  1  0.829410  0.499500  0.652124  1
  O  O28  1  0.327859  0.000176  0.643652  1
  O  O29  1  0.248779  0.255478  0.503716  1
  O  O30  1  0.752061  0.744500  0.496066  1
  O  O31  1  0.752053  0.254087  0.496648  1
  O  O32  1  0.248813  0.745019  0.503367  1
  O  O33  1  0.118321  0.170062  0.340124  1
  O  O34  1  0.618532  0.669665  0.340217  1
  O  O35  1  0.882510  0.169472  0.660651  1
  O  O36  1  0.382348  0.670495  0.659431  1
  O  O37  1  0.882536  0.829426  0.659902  1
  O  O38  1  0.382317  0.329898  0.659766  1
  O  O39  1  0.118217  0.830009  0.340098  1
  O  O40  1  0.618492  0.329145  0.341052  1
  O  O41  1  0.012844  0.999737  0.696724  1
  O  O42  1  0.512302  0.500034  0.696032  1
  O  O43  1  0.988020  0.000132  0.303826  1
  O  O44  1  0.488584  0.499663  0.304373  1
  O  O45  1  0.095531  0.000044  0.539807  1
  O  O46  1  0.595975  0.500540  0.540763  1
  O  O47  1  0.905371  0.000485  0.460731  1
  O  O48  1  0.404958  0.499790  0.459641  1
  Si  Si49  1  0.215069  0.293586  0.839484  1
  Si  Si50  1  0.714982  0.793077  0.838692  1
  Si  Si51  1  0.785616  0.293047  0.160672  1
  Si  Si52  1  0.286186  0.793537  0.161508  1
  Si  Si53  1  0.785972  0.706022  0.160793  1
  Si  Si54  1  0.286025  0.206445  0.161589  1
  Si  Si55  1  0.215182  0.706543  0.839383  1
  Si  Si56  1  0.714646  0.205951  0.838551  1
  Si  Si57  1  0.189230  0.293683  0.354816  1
  Si  Si58  1  0.689334  0.793018  0.352984  1
  Si  Si59  1  0.811529  0.293049  0.645494  1
  Si  Si60  1  0.311461  0.793668  0.646481  1
  Si  Si61  1  0.811547  0.705971  0.644970  1
  Si  Si62  1  0.311451  0.206644  0.646770  1
  Si  Si63  1  0.189220  0.706622  0.354535  1
  Si  Si64  1  0.689306  0.205975  0.353521  1
  Si  Si65  1  0.097912  0.999995  0.697889  1
  Si  Si66  1  0.597546  0.499809  0.698445  1
  Si  Si67  1  0.902951  0.999838  0.302633  1
  Si  Si68  1  0.403342  0.499874  0.301949  1
  Si  Si69  1  0.077151  0.000100  0.375132  1
  Si  Si70  1  0.577678  0.499699  0.376069  1
  Si  Si71  1  0.923712  0.999709  0.625400  1
  Si  Si72  1  0.423208  0.500063  0.624311  1
