# generated using pymatgen
data_SiO2
_symmetry_space_group_name_H-M   'P 1'
_cell_length_a   22.01606187
_cell_length_b   22.01634605
_cell_length_c   21.16392848
_cell_angle_alpha   90.00000000
_cell_angle_beta   90.00000000
_cell_angle_gamma   120.00000000
_symmetry_Int_Tables_number   1
_chemical_formula_structural   SiO2
_chemical_formula_sum   'Si132 O264'
_cell_volume   8884.06641756
_cell_formula_units_Z   132
loop_
 _symmetry_equiv_pos_site_id
 _symmetry_equiv_pos_as_xyz
  1  'x, y, z'
loop_
 _atom_site_type_symbol
 _atom_site_label
 _atom_site_symmetry_multiplicity
 _atom_site_fract_x
 _atom_site_fract_y
 _atom_site_fract_z
 _atom_site_occupancy
  O  O1  1  0.266472  0.133084  0.257967  1
  O  O2  1  0.133391  0.266323  0.257970  1
  O  O3  1  0.133385  0.866913  0.257994  1
  O  O4  1  0.356016  0.253387  0.296799  1
  O  O5  1  0.102664  0.355886  0.296810  1
  O  O6  1  0.253673  0.897554  0.296790  1
  O  O7  1  0.356106  0.102431  0.296771  1
  O  O8  1  0.253694  0.355901  0.296753  1
  O  O9  1  0.102608  0.746605  0.296822  1
  O  O10  1  0.235614  0.235410  0.263131  1
  O  O11  1  0.000183  0.422173  0.216232  1
  O  O12  1  0.235695  0.999991  0.263146  1
  O  O13  1  0.320426  0.234125  0.182382  1
  O  O14  1  0.086315  0.320313  0.182398  1
  O  O15  1  0.234432  0.913909  0.182380  1
  O  O16  1  0.320506  0.086063  0.182359  1
  O  O17  1  0.234387  0.320258  0.182350  1
  O  O18  1  0.086277  0.765872  0.182412  1
  O  O19  1  0.472367  0.124897  0.263639  1
  O  O20  1  0.347410  0.472169  0.263628  1
  O  O21  1  0.125023  0.652794  0.263744  1
  O  O22  1  0.472250  0.347181  0.263717  1
  O  O23  1  0.125078  0.472126  0.263713  1
  O  O24  1  0.347445  0.875053  0.263651  1
  O  O25  1  0.454791  0.227275  0.311996  1
  O  O26  1  0.227487  0.454616  0.311981  1
  O  O27  1  0.227484  0.772695  0.312015  1
  O  O28  1  0.436772  0.332564  0.149460  1
  O  O29  1  0.104224  0.436653  0.149458  1
  O  O30  1  0.332834  0.895939  0.149425  1
  O  O31  1  0.436865  0.104003  0.149411  1
  O  O32  1  0.332773  0.436607  0.149387  1
  O  O33  1  0.104145  0.667411  0.149493  1
  O  O34  1  0.422326  0.422157  0.216216  1
  O  O35  1  0.422399  0.999972  0.216212  1
  O  O36  1  0.094915  0.547398  0.190352  1
  O  O37  1  0.452837  0.547360  0.190214  1
  O  O38  1  0.452938  0.905294  0.190315  1
  O  O39  1  0.400188  0.199977  0.129571  1
  O  O40  1  0.200178  0.399993  0.129560  1
  O  O41  1  0.200175  0.799988  0.129599  1
  O  O42  1  0.344724  0.090779  0.061058  1
  O  O43  1  0.253849  0.344469  0.061036  1
  O  O44  1  0.090925  0.746299  0.061117  1
  O  O45  1  0.344632  0.253678  0.061089  1
  O  O46  1  0.090927  0.344490  0.061096  1
  O  O47  1  0.253923  0.909179  0.061074  1
  O  O48  1  0.238429  0.999975  0.000091  1
  O  O49  1  0.238352  0.238191  0.000057  1
  O  O50  1  0.138887  0.861281  0.000074  1
  Si  Si51  1  0.290612  0.212506  0.251846  1
  Si  Si52  1  0.078175  0.290513  0.251850  1
  Si  Si53  1  0.212816  0.922099  0.251847  1
  Si  Si54  1  0.290701  0.077882  0.251827  1
  Si  Si55  1  0.212802  0.290474  0.251826  1
  Si  Si56  1  0.078095  0.787495  0.251875  1
  Si  Si57  1  0.436297  0.147971  0.315218  1
  Si  Si58  1  0.288269  0.436084  0.315208  1
  Si  Si59  1  0.148147  0.711966  0.315295  1
  Si  Si60  1  0.436195  0.288013  0.315272  1
  Si  Si61  1  0.148176  0.436074  0.315281  1
  Si  Si62  1  0.288308  0.851993  0.315234  1
  Si  Si63  1  0.471316  0.389498  0.203618  1
  Si  Si64  1  0.081829  0.471191  0.203614  1
  Si  Si65  1  0.389790  0.918340  0.203569  1
  Si  Si66  1  0.471416  0.081603  0.203559  1
  Si  Si67  1  0.389715  0.471177  0.203533  1
  Si  Si68  1  0.081773  0.610478  0.203644  1
  Si  Si69  1  0.377354  0.119700  0.127850  1
  Si  Si70  1  0.257572  0.377096  0.127834  1
  Si  Si71  1  0.119871  0.742614  0.127906  1
  Si  Si72  1  0.377277  0.257366  0.127873  1
  Si  Si73  1  0.119899  0.377140  0.127877  1
  Si  Si74  1  0.257630  0.880261  0.127869  1
  O  O75  1  0.277578  0.138675  0.000073  1
  O  O76  1  0.000323  0.235452  0.263154  1
  O  O77  1  0.000199  0.764598  0.263163  1
  O  O78  1  0.000119  0.577780  0.216254  1
  Si  Si79  1  0.080097  0.299077  0.000017  1
  Si  Si80  1  0.219286  0.920024  0.000046  1
  Si  Si81  1  0.299171  0.219057  0.000046  1
  Si  Si82  1  0.080095  0.780902  0.000056  1
  Si  Si83  1  0.299231  0.079930  0.000038  1
  O  O84  1  0.000140  0.761761  0.000066  1
  O  O85  1  0.138840  0.277424  0.000016  1
  O  O86  1  0.000150  0.238260  0.000001  1
  O  O87  1  0.451410  0.124929  0.381047  1
  O  O88  1  0.326363  0.451177  0.381066  1
  O  O89  1  0.125085  0.673874  0.381155  1
  O  O90  1  0.451232  0.326111  0.381129  1
  O  O91  1  0.125144  0.451163  0.381133  1
  O  O92  1  0.326473  0.875026  0.381060  1
  O  O93  1  0.326188  0.451048  0.618856  1
  O  O94  1  0.124982  0.673831  0.618911  1
  O  O95  1  0.451108  0.124883  0.618813  1
  O  O96  1  0.124995  0.451068  0.618901  1
  O  O97  1  0.326209  0.875056  0.618817  1
  O  O98  1  0.451110  0.326098  0.618887  1
  O  O99  1  0.094457  0.465725  0.500025  1
  O  O100  1  0.371584  0.905650  0.499932  1
  O  O101  1  0.465759  0.371324  0.500009  1
  O  O102  1  0.371481  0.465705  0.499975  1
  O  O103  1  0.094401  0.628634  0.500033  1
  O  O104  1  0.465891  0.094301  0.499926  1
  O  O105  1  0.093484  0.546702  0.585136  1
  O  O106  1  0.453346  0.546686  0.585134  1
  O  O107  1  0.453372  0.906551  0.585156  1
  O  O108  1  0.093575  0.546754  0.414921  1
  O  O109  1  0.453482  0.546740  0.414905  1
  O  O110  1  0.453613  0.906537  0.414918  1
  O  O111  1  0.420003  0.999972  0.584422  1
  O  O112  1  0.000041  0.580047  0.584522  1
  O  O113  1  0.419968  0.419890  0.584487  1
  O  O114  1  0.420062  0.419922  0.415490  1
  O  O115  1  0.420267  0.999979  0.415423  1
  Si  Si116  1  0.080989  0.470435  0.572763  1
  Si  Si117  1  0.389616  0.919051  0.572697  1
  Si  Si118  1  0.470479  0.389475  0.572753  1
  Si  Si119  1  0.389580  0.470420  0.572732  1
  Si  Si120  1  0.080966  0.610462  0.572773  1
  Si  Si121  1  0.470524  0.080894  0.572690  1
  Si  Si122  1  0.470547  0.389481  0.427263  1
  Si  Si123  1  0.081101  0.470492  0.427272  1
  Si  Si124  1  0.389836  0.919058  0.427202  1
  Si  Si125  1  0.470745  0.080904  0.427195  1
  Si  Si126  1  0.389690  0.470469  0.427239  1
  Si  Si127  1  0.081032  0.610498  0.427283  1
  O  O128  1  0.000106  0.580070  0.415527  1
  O  O129  1  0.000182  0.419960  0.415536  1
  O  O130  1  0.000067  0.419912  0.584518  1
  O  O131  1  0.133153  0.266190  0.742016  1
  O  O132  1  0.133185  0.866864  0.742028  1
  O  O133  1  0.266270  0.133068  0.742010  1
  O  O134  1  0.102438  0.355779  0.703219  1
  O  O135  1  0.253466  0.897584  0.703173  1
  O  O136  1  0.355856  0.253373  0.703210  1
  O  O137  1  0.253446  0.355752  0.703174  1
  O  O138  1  0.102454  0.746562  0.703234  1
  O  O139  1  0.355850  0.102353  0.703167  1
  O  O140  1  0.000044  0.235360  0.736903  1
  O  O141  1  0.235432  0.999963  0.736834  1
  O  O142  1  0.235416  0.235324  0.736829  1
  O  O143  1  0.086133  0.320207  0.817630  1
  O  O144  1  0.234233  0.913922  0.817596  1
  O  O145  1  0.320241  0.234107  0.817613  1
  O  O146  1  0.234207  0.320160  0.817583  1
  O  O147  1  0.086121  0.765827  0.817643  1
  O  O148  1  0.320269  0.086020  0.817588  1
  O  O149  1  0.347232  0.472017  0.736277  1
  O  O150  1  0.124991  0.652821  0.736330  1
  O  O151  1  0.472125  0.124837  0.736240  1
  O  O152  1  0.124949  0.472057  0.736315  1
  O  O153  1  0.347264  0.875103  0.736244  1
  O  O154  1  0.472135  0.347122  0.736307  1
  O  O155  1  0.227313  0.454486  0.687993  1
  O  O156  1  0.227338  0.772735  0.687964  1
  O  O157  1  0.454567  0.227204  0.687955  1
  O  O158  1  0.104112  0.436589  0.850561  1
  O  O159  1  0.332634  0.895957  0.850505  1
  O  O160  1  0.436611  0.332529  0.850547  1
  O  O161  1  0.332637  0.436510  0.850523  1
  O  O162  1  0.104082  0.667413  0.850574  1
  O  O163  1  0.436638  0.103989  0.850498  1
  O  O164  1  0.422237  0.999972  0.783742  1
  O  O165  1  0.000094  0.577820  0.783784  1
  O  O166  1  0.422243  0.422132  0.783741  1
  O  O167  1  0.094854  0.547380  0.809695  1
  O  O168  1  0.452649  0.547318  0.809685  1
  O  O169  1  0.452658  0.905210  0.809715  1
  O  O170  1  0.200058  0.399903  0.870400  1
  O  O171  1  0.200041  0.800017  0.870403  1
  O  O172  1  0.399982  0.199931  0.870380  1
  O  O173  1  0.253770  0.344363  0.938883  1
  O  O174  1  0.090880  0.746318  0.938957  1
  O  O175  1  0.344545  0.090728  0.938896  1
  O  O176  1  0.090897  0.344475  0.938937  1
  O  O177  1  0.253809  0.909227  0.938908  1
  O  O178  1  0.344515  0.253624  0.938930  1
  O  O179  1  0.000063  0.764608  0.736879  1
  Si  Si180  1  0.377099  0.257334  0.872111  1
  Si  Si181  1  0.257458  0.880298  0.872098  1
  Si  Si182  1  0.077933  0.290387  0.748173  1
  Si  Si183  1  0.212596  0.922092  0.748138  1
  Si  Si184  1  0.290447  0.212480  0.748149  1
  Si  Si185  1  0.212566  0.290355  0.748125  1
  Si  Si186  1  0.077942  0.787450  0.748180  1
  Si  Si187  1  0.290460  0.077840  0.748131  1
  Si  Si188  1  0.288079  0.435939  0.684713  1
  Si  Si189  1  0.148026  0.711956  0.684753  1
  Si  Si190  1  0.436023  0.147893  0.684679  1
  Si  Si191  1  0.148005  0.435962  0.684750  1
  Si  Si192  1  0.288109  0.852044  0.684681  1
  Si  Si193  1  0.436033  0.287981  0.684734  1
  Si  Si194  1  0.081729  0.471158  0.796424  1
  Si  Si195  1  0.389570  0.918325  0.796360  1
  Si  Si196  1  0.471213  0.389460  0.796397  1
  Si  Si197  1  0.389565  0.471101  0.796372  1
  Si  Si198  1  0.081739  0.610483  0.796422  1
  Si  Si199  1  0.471211  0.081619  0.796359  1
  Si  Si200  1  0.257446  0.376998  0.872096  1
  Si  Si201  1  0.119758  0.742607  0.872140  1
  Si  Si202  1  0.377122  0.119652  0.872085  1
  Si  Si203  1  0.119784  0.377067  0.872124  1
  O  O204  1  0.000079  0.422174  0.783820  1
  Si  Si205  1  0.219217  0.299009  0.999995  1
  O  O206  1  0.867087  0.733695  0.258000  1
  O  O207  1  0.867304  0.133143  0.258000  1
  O  O208  1  0.734217  0.866909  0.258003  1
  O  O209  1  0.897793  0.644117  0.296797  1
  O  O210  1  0.747005  0.102301  0.296928  1
  O  O211  1  0.644599  0.746644  0.296876  1
  O  O212  1  0.746791  0.644154  0.296843  1
  O  O213  1  0.897925  0.253416  0.296816  1
  O  O214  1  0.644746  0.897727  0.296938  1
  Si  Si215  1  0.701109  0.920028  0.000066  1
  O  O216  1  0.765157  0.000018  0.263194  1
  O  O217  1  0.764936  0.764605  0.263176  1
  O  O218  1  0.914127  0.679724  0.182395  1
  O  O219  1  0.766192  0.086011  0.182506  1
  O  O220  1  0.680087  0.765837  0.182454  1
  O  O221  1  0.766026  0.679717  0.182436  1
  O  O222  1  0.914228  0.234173  0.182410  1
  O  O223  1  0.680196  0.913997  0.182514  1
  O  O224  1  0.652939  0.527907  0.263752  1
  O  O225  1  0.875318  0.347130  0.263729  1
  O  O226  1  0.528412  0.875173  0.263918  1
  O  O227  1  0.875215  0.527832  0.263694  1
  O  O228  1  0.653203  0.124804  0.263897  1
  O  O229  1  0.528264  0.652954  0.263813  1
  O  O230  1  0.772861  0.545411  0.312009  1
  O  O231  1  0.773062  0.227161  0.312112  1
  O  O232  1  0.545975  0.772875  0.312189  1
  O  O233  1  0.896122  0.563343  0.149449  1
  O  O234  1  0.667691  0.103897  0.149635  1
  O  O235  1  0.563646  0.667465  0.149555  1
  O  O236  1  0.667564  0.563390  0.149503  1
  O  O237  1  0.896168  0.332528  0.149486  1
  O  O238  1  0.563784  0.896062  0.149653  1
  Si  Si239  1  0.781009  0.700897  0.000042  1
  O  O240  1  0.578098  0.999980  0.216444  1
  O  O241  1  0.861403  0.722540  0.000039  1
  O  O242  1  0.577981  0.577841  0.216300  1
  O  O243  1  0.905378  0.452553  0.190341  1
  O  O244  1  0.547529  0.452618  0.190363  1
  O  O245  1  0.547608  0.094647  0.190296  1
  O  O246  1  0.800175  0.600003  0.129615  1
  O  O247  1  0.800251  0.199887  0.129720  1
  O  O248  1  0.600379  0.800094  0.129763  1
  O  O249  1  0.746444  0.655515  0.061139  1
  O  O250  1  0.909380  0.253651  0.061108  1
  O  O251  1  0.655835  0.909266  0.061230  1
  O  O252  1  0.909366  0.655500  0.061089  1
  O  O253  1  0.746549  0.090697  0.061216  1
  O  O254  1  0.655726  0.746317  0.061157  1
  Si  Si255  1  0.920187  0.700941  0.000035  1
  Si  Si256  1  0.623196  0.742644  0.127997  1
  Si  Si257  1  0.781061  0.079930  0.000056  1
  Si  Si258  1  0.742881  0.119591  0.128040  1
  Si  Si259  1  0.623293  0.880386  0.128062  1
  Si  Si260  1  0.880460  0.622875  0.127890  1
  Si  Si261  1  0.922329  0.709531  0.251857  1
  Si  Si262  1  0.787913  0.077867  0.251926  1
  Si  Si263  1  0.709953  0.787494  0.251880  1
  Si  Si264  1  0.787691  0.709521  0.251882  1
  Si  Si265  1  0.922448  0.212558  0.251853  1
  Si  Si266  1  0.710082  0.922165  0.251927  1
  Si  Si267  1  0.712102  0.563962  0.315311  1
  Si  Si268  1  0.852337  0.288003  0.315306  1
  Si  Si269  1  0.564579  0.852197  0.315455  1
  Si  Si270  1  0.852169  0.563936  0.315259  1
  Si  Si271  1  0.712361  0.147830  0.315427  1
  Si  Si272  1  0.564437  0.712056  0.315385  1
  Si  Si273  1  0.918479  0.528767  0.203603  1
  Si  Si274  1  0.610765  0.081608  0.203784  1
  Si  Si275  1  0.529019  0.610528  0.203692  1
  Si  Si276  1  0.610619  0.528841  0.203651  1
  Si  Si277  1  0.918527  0.389474  0.203622  1
  Si  Si278  1  0.529142  0.918349  0.203799  1
  Si  Si279  1  0.742765  0.622879  0.127926  1
  Si  Si280  1  0.880517  0.257339  0.127939  1
  Si  Si281  1  0.701063  0.780854  0.000032  1
  O  O282  1  0.761867  0.761706  0.000009  1
  O  O283  1  0.722713  0.861249  0.000006  1
  Si  Si284  1  0.920195  0.219099  0.000002  1
  O  O285  1  0.674001  0.548855  0.381172  1
  O  O286  1  0.875314  0.326133  0.381148  1
  O  O287  1  0.549431  0.875175  0.381303  1
  O  O288  1  0.875156  0.548838  0.381123  1
  O  O289  1  0.674245  0.124862  0.381284  1
  O  O290  1  0.549265  0.673893  0.381211  1
  O  O291  1  0.548974  0.875038  0.619040  1
  O  O292  1  0.673898  0.548857  0.618953  1
  O  O293  1  0.875120  0.326122  0.618923  1
  O  O294  1  0.548983  0.673815  0.618956  1
  O  O295  1  0.875104  0.548887  0.618907  1
  O  O296  1  0.673906  0.124942  0.619035  1
  O  O297  1  0.534443  0.628609  0.500068  1
  O  O298  1  0.905739  0.534267  0.500018  1
  O  O299  1  0.628840  0.094339  0.500145  1
  O  O300  1  0.534516  0.905665  0.500154  1
  O  O301  1  0.628734  0.534228  0.500069  1
  O  O302  1  0.905788  0.371349  0.500028  1
  O  O303  1  0.906615  0.453251  0.585132  1
  O  O304  1  0.546755  0.453227  0.585147  1
  O  O305  1  0.546788  0.093413  0.585145  1
  O  O306  1  0.906708  0.453259  0.414915  1
  O  O307  1  0.546842  0.453225  0.414931  1
  O  O308  1  0.547052  0.093451  0.414912  1
  Si  Si309  1  0.610624  0.529485  0.427315  1
  O  O310  1  0.580136  0.580020  0.584560  1
  O  O311  1  0.580165  0.999993  0.584643  1
  Si  Si312  1  0.919254  0.389519  0.427288  1
  O  O313  1  0.580390  0.000010  0.415677  1
  Si  Si314  1  0.529889  0.919087  0.427395  1
  O  O315  1  0.580243  0.580021  0.415585  1
  Si  Si316  1  0.529637  0.610445  0.572813  1
  Si  Si317  1  0.919120  0.529524  0.572770  1
  Si  Si318  1  0.610574  0.080913  0.572869  1
  Si  Si319  1  0.529666  0.919069  0.572881  1
  Si  Si320  1  0.610536  0.529498  0.572804  1
  Si  Si321  1  0.919142  0.389493  0.572778  1
  Si  Si322  1  0.919186  0.529524  0.427280  1
  Si  Si323  1  0.610799  0.080932  0.427383  1
  Si  Si324  1  0.529765  0.610472  0.427324  1
  O  O325  1  0.733814  0.866844  0.742169  1
  O  O326  1  0.866931  0.733744  0.742077  1
  O  O327  1  0.866929  0.133098  0.742132  1
  O  O328  1  0.644252  0.746575  0.703290  1
  O  O329  1  0.897663  0.644185  0.703227  1
  O  O330  1  0.746626  0.102375  0.703341  1
  O  O331  1  0.644240  0.897574  0.703352  1
  O  O332  1  0.746632  0.644161  0.703269  1
  O  O333  1  0.897644  0.253383  0.703253  1
  O  O334  1  0.764659  0.764582  0.736959  1
  Si  Si335  1  0.742674  0.119696  0.872252  1
  O  O336  1  0.764667  0.999977  0.737009  1
  O  O337  1  0.679786  0.765769  0.817712  1
  O  O338  1  0.914017  0.679772  0.817640  1
  O  O339  1  0.765893  0.086056  0.817750  1
  O  O340  1  0.679817  0.913901  0.817766  1
  O  O341  1  0.765889  0.679722  0.817683  1
  O  O342  1  0.913997  0.234177  0.817670  1
  O  O343  1  0.527982  0.875071  0.736450  1
  O  O344  1  0.652858  0.527887  0.736365  1
  O  O345  1  0.875201  0.347196  0.736340  1
  O  O346  1  0.527985  0.652763  0.736367  1
  O  O347  1  0.875194  0.527928  0.736327  1
  O  O348  1  0.652876  0.124886  0.736449  1
  O  O349  1  0.545521  0.772690  0.688103  1
  O  O350  1  0.772796  0.545451  0.688054  1
  O  O351  1  0.772799  0.227268  0.688100  1
  O  O352  1  0.563417  0.667358  0.850629  1
  O  O353  1  0.896100  0.563423  0.850575  1
  O  O354  1  0.667466  0.103999  0.850690  1
  O  O355  1  0.563447  0.895961  0.850695  1
  O  O356  1  0.667478  0.563342  0.850612  1
  O  O357  1  0.896052  0.332590  0.850599  1
  Si  Si358  1  0.880413  0.622929  0.872151  1
  O  O359  1  0.577874  0.577778  0.783859  1
  O  O360  1  0.577885  0.999979  0.783906  1
  O  O361  1  0.905319  0.452626  0.809700  1
  O  O362  1  0.547425  0.452558  0.809705  1
  O  O363  1  0.547416  0.094739  0.809719  1
  O  O364  1  0.600078  0.799974  0.870528  1
  O  O365  1  0.800118  0.600024  0.870453  1
  O  O366  1  0.800090  0.199981  0.870507  1
  O  O367  1  0.655586  0.909172  0.939063  1
  O  O368  1  0.746391  0.655465  0.938984  1
  O  O369  1  0.909348  0.253713  0.938957  1
  O  O370  1  0.655582  0.746230  0.938998  1
  O  O371  1  0.909371  0.655562  0.938938  1
  O  O372  1  0.746397  0.090784  0.939049  1
  Si  Si373  1  0.709627  0.787426  0.748264  1
  Si  Si374  1  0.922181  0.709580  0.748182  1
  Si  Si375  1  0.787515  0.077862  0.748289  1
  Si  Si376  1  0.709640  0.922093  0.748308  1
  Si  Si377  1  0.787515  0.709551  0.748228  1
  Si  Si378  1  0.922169  0.212521  0.748221  1
  Si  Si379  1  0.564060  0.852004  0.684883  1
  Si  Si380  1  0.712012  0.563975  0.684804  1
  Si  Si381  1  0.852112  0.288031  0.684788  1
  Si  Si382  1  0.564066  0.711922  0.684812  1
  Si  Si383  1  0.852109  0.563999  0.684765  1
  Si  Si384  1  0.712021  0.147955  0.684880  1
  Si  Si385  1  0.528877  0.610427  0.796466  1
  Si  Si386  1  0.918447  0.528846  0.796417  1
  Si  Si387  1  0.610531  0.081623  0.796531  1
  Si  Si388  1  0.528893  0.918333  0.796530  1
  Si  Si389  1  0.610528  0.528785  0.796468  1
  Si  Si390  1  0.918433  0.389522  0.796442  1
  Si  Si391  1  0.622954  0.880261  0.872265  1
  Si  Si392  1  0.742677  0.622859  0.872177  1
  Si  Si393  1  0.880376  0.257399  0.872180  1
  Si  Si394  1  0.622934  0.742547  0.872216  1
  O  O395  1  0.861446  0.138705  0.999991  1
  O  O396  1  0.761927  0.999979  0.999984  1
