# generated using pymatgen
data_SiO2
_symmetry_space_group_name_H-M   'P 1'
_cell_length_a   7.50249860
_cell_length_b   18.12388572
_cell_length_c   25.58151017
_cell_angle_alpha   90.00000000
_cell_angle_beta   90.00000000
_cell_angle_gamma   90.00000000
_symmetry_Int_Tables_number   1
_chemical_formula_structural   SiO2
_chemical_formula_sum   'Si60 O120'
_cell_volume   3478.43119149
_cell_formula_units_Z   60
loop_
 _symmetry_equiv_pos_site_id
 _symmetry_equiv_pos_as_xyz
  1  'x, y, z'
loop_
 _atom_site_type_symbol
 _atom_site_label
 _atom_site_symmetry_multiplicity
 _atom_site_fract_x
 _atom_site_fract_y
 _atom_site_fract_z
 _atom_site_occupancy
  O  O1  1  0.580780  0.151808  0.961791  1
  O  O2  1  0.919277  0.151807  0.961790  1
  O  O3  1  0.580777  0.348054  0.961776  1
  O  O4  1  0.919297  0.348051  0.961766  1
  O  O5  1  0.419339  0.848043  0.038285  1
  O  O6  1  0.080818  0.848039  0.038294  1
  O  O7  1  0.419346  0.651794  0.038272  1
  O  O8  1  0.080847  0.651794  0.038280  1
  O  O9  1  0.750037  0.115037  0.046740  1
  O  O10  1  0.750079  0.384891  0.046690  1
  O  O11  1  0.250030  0.884875  0.953370  1
  O  O12  1  0.250047  0.615036  0.953321  1
  O  O13  1  0.750046  0.249940  0.011199  1
  O  O14  1  0.250077  0.749927  0.988868  1
  O  O15  1  0.580875  0.029471  0.111828  1
  O  O16  1  0.919195  0.029469  0.111829  1
  O  O17  1  0.580966  0.470387  0.111825  1
  O  O18  1  0.919317  0.470365  0.111817  1
  O  O19  1  0.419160  0.970381  0.888246  1
  O  O20  1  0.080816  0.970373  0.888251  1
  O  O21  1  0.419234  0.529492  0.888232  1
  O  O22  1  0.080915  0.529472  0.888224  1
  O  O23  1  0.750031  0.138867  0.147271  1
  O  O24  1  0.750094  0.360881  0.147174  1
  O  O25  1  0.249992  0.860888  0.852882  1
  O  O26  1  0.250025  0.638882  0.852787  1
  O  O27  1  0.579923  0.128237  0.232078  1
  O  O28  1  0.920150  0.128239  0.232075  1
  O  O29  1  0.580070  0.371475  0.231970  1
  O  O30  1  0.920305  0.371425  0.231935  1
  O  O31  1  0.420093  0.871472  0.768103  1
  O  O32  1  0.079866  0.871468  0.768104  1
  O  O33  1  0.420173  0.628257  0.767993  1
  O  O34  1  0.079945  0.628239  0.767972  1
  O  O35  1  0.750037  0.249848  0.211874  1
  O  O36  1  0.249997  0.749862  0.788179  1
  O  O37  1  0.250026  0.156817  0.927018  1
  O  O38  1  0.250037  0.343042  0.926996  1
  O  O39  1  0.750077  0.843029  0.073064  1
  O  O40  1  0.750101  0.656805  0.073050  1
  O  O41  1  0.999766  0.105529  0.869987  1
  O  O42  1  0.500261  0.105536  0.869986  1
  O  O43  1  0.999785  0.394321  0.869965  1
  O  O44  1  0.500321  0.394332  0.869978  1
  O  O45  1  0.000323  0.894315  0.130091  1
  O  O46  1  0.499791  0.894317  0.130086  1
  O  O47  1  0.000360  0.605518  0.130085  1
  O  O48  1  0.499862  0.605534  0.130085  1
  O  O49  1  0.018213  0.249922  0.897424  1
  O  O50  1  0.481856  0.249929  0.897428  1
  O  O51  1  0.981905  0.749913  0.102642  1
  O  O52  1  0.518263  0.749917  0.102633  1
  O  O53  1  0.018990  0.000674  0.204381  1
  O  O54  1  0.481082  0.000672  0.204379  1
  O  O55  1  0.019072  0.499087  0.204366  1
  O  O56  1  0.481228  0.499118  0.204379  1
  O  O57  1  0.981063  0.999113  0.795703  1
  O  O58  1  0.518909  0.999119  0.795699  1
  O  O59  1  0.981107  0.500678  0.795670  1
  O  O60  1  0.519014  0.500686  0.795687  1
  O  O61  1  0.250040  0.989868  0.132513  1
  O  O62  1  0.250144  0.509990  0.132516  1
  O  O63  1  0.749991  0.009995  0.867559  1
  O  O64  1  0.750078  0.489880  0.867546  1
  O  O65  1  0.250033  0.082693  0.248099  1
  O  O66  1  0.250181  0.416957  0.247963  1
  O  O67  1  0.749977  0.916978  0.752105  1
  O  O68  1  0.750055  0.582700  0.751958  1
  O  O69  1  0.992415  0.038809  0.305886  1
  O  O70  1  0.507615  0.038797  0.305886  1
  O  O71  1  0.992663  0.460573  0.305856  1
  O  O72  1  0.507559  0.460635  0.305886  1
  O  O73  1  0.007388  0.960656  0.694198  1
  O  O74  1  0.492550  0.960651  0.694196  1
  O  O75  1  0.007601  0.538805  0.694158  1
  O  O76  1  0.492374  0.538805  0.694190  1
  O  O77  1  0.078518  0.123913  0.380674  1
  O  O78  1  0.421497  0.123887  0.380681  1
  O  O79  1  0.078761  0.375189  0.380491  1
  O  O80  1  0.421471  0.375237  0.380512  1
  O  O81  1  0.921301  0.875275  0.619568  1
  O  O82  1  0.578608  0.875269  0.619561  1
  O  O83  1  0.921491  0.623935  0.619389  1
  O  O84  1  0.578501  0.623929  0.619439  1
  O  O85  1  0.250127  0.249491  0.387618  1
  O  O86  1  0.749971  0.749536  0.612476  1
  O  O87  1  0.249988  0.157396  0.461743  1
  O  O88  1  0.250093  0.342154  0.461470  1
  O  O89  1  0.749986  0.842178  0.538606  1
  O  O90  1  0.749770  0.657420  0.538364  1
  O  O91  1  0.080178  0.122216  0.541909  1
  O  O92  1  0.419704  0.122219  0.541923  1
  O  O93  1  0.079512  0.378183  0.541193  1
  O  O94  1  0.420463  0.378164  0.541233  1
  O  O95  1  0.920402  0.878158  0.458843  1
  O  O96  1  0.579456  0.878159  0.458865  1
  O  O97  1  0.919890  0.622313  0.458251  1
  O  O98  1  0.580321  0.622176  0.458144  1
  O  O99  1  0.249944  0.250207  0.535443  1
  O  O100  1  0.749881  0.750201  0.464651  1
  O  O101  1  0.006004  0.990482  0.401886  1
  O  O102  1  0.493969  0.990463  0.401888  1
  O  O103  1  0.003325  0.508485  0.401926  1
  O  O104  1  0.497061  0.508545  0.401983  1
  O  O105  1  0.996939  0.008578  0.598094  1
  O  O106  1  0.502970  0.008572  0.598095  1
  O  O107  1  0.993982  0.490519  0.598137  1
  O  O108  1  0.506065  0.490494  0.598184  1
  O  O109  1  0.750000  0.073382  0.372260  1
  O  O110  1  0.750111  0.425080  0.371880  1
  O  O111  1  0.249955  0.925107  0.628206  1
  O  O112  1  0.249999  0.573395  0.627801  1
  O  O113  1  0.249940  0.930946  0.458058  1
  O  O114  1  0.250002  0.571227  0.454689  1
  O  O115  1  0.749946  0.071211  0.545356  1
  O  O116  1  0.749996  0.430977  0.541983  1
  O  O117  1  0.995152  0.001185  0.499685  1
  O  O118  1  0.504704  0.001200  0.499685  1
  O  O119  1  0.004781  0.501197  0.500327  1
  O  O120  1  0.495140  0.501188  0.500387  1
  Si  Si121  1  0.045265  0.165548  0.913213  1
  Si  Si122  1  0.454787  0.165554  0.913215  1
  Si  Si123  1  0.045280  0.334304  0.913191  1
  Si  Si124  1  0.454800  0.334310  0.913198  1
  Si  Si125  1  0.954834  0.834292  0.086869  1
  Si  Si126  1  0.545314  0.834298  0.086863  1
  Si  Si127  1  0.954859  0.665536  0.086857  1
  Si  Si128  1  0.545337  0.665542  0.086849  1
  Si  Si129  1  0.045355  0.977384  0.144829  1
  Si  Si130  1  0.454726  0.977381  0.144828  1
  Si  Si131  1  0.045444  0.522456  0.144824  1
  Si  Si132  1  0.454833  0.522471  0.144835  1
  Si  Si133  1  0.954688  0.022467  0.855247  1
  Si  Si134  1  0.545298  0.022471  0.855243  1
  Si  Si135  1  0.954757  0.477389  0.855223  1
  Si  Si136  1  0.545386  0.477396  0.855238  1
  Si  Si137  1  0.044938  0.061960  0.248379  1
  Si  Si138  1  0.455127  0.061957  0.248378  1
  Si  Si139  1  0.045082  0.437683  0.248285  1
  Si  Si140  1  0.455257  0.437725  0.248308  1
  Si  Si141  1  0.955065  0.937727  0.751772  1
  Si  Si142  1  0.544891  0.937730  0.751769  1
  Si  Si143  1  0.955147  0.561961  0.751671  1
  Si  Si144  1  0.544954  0.561973  0.751691  1
  Si  Si145  1  0.955289  0.056931  0.365384  1
  Si  Si146  1  0.544719  0.056909  0.365386  1
  Si  Si147  1  0.955187  0.442036  0.365276  1
  Si  Si148  1  0.545047  0.442089  0.365305  1
  Si  Si149  1  0.044891  0.942121  0.634778  1
  Si  Si150  1  0.455022  0.942114  0.634778  1
  Si  Si151  1  0.044708  0.556941  0.634661  1
  Si  Si152  1  0.455276  0.556929  0.634691  1
  Si  Si153  1  0.044713  0.947826  0.454052  1
  Si  Si154  1  0.455168  0.947828  0.454057  1
  Si  Si155  1  0.044961  0.552972  0.453030  1
  Si  Si156  1  0.455016  0.552935  0.453072  1
  Si  Si157  1  0.954964  0.052948  0.546990  1
  Si  Si158  1  0.544927  0.052951  0.546995  1
  Si  Si159  1  0.955232  0.447865  0.545971  1
  Si  Si160  1  0.544762  0.447839  0.546017  1
  Si  Si161  1  0.750031  0.165174  0.997102  1
  Si  Si162  1  0.750049  0.334699  0.997079  1
  Si  Si163  1  0.250068  0.834687  0.002982  1
  Si  Si164  1  0.250085  0.665162  0.002965  1
  Si  Si165  1  0.750036  0.079351  0.102289  1
  Si  Si166  1  0.750117  0.420511  0.102257  1
  Si  Si167  1  0.249998  0.920507  0.897806  1
  Si  Si168  1  0.250054  0.579363  0.897768  1
  Si  Si169  1  0.750033  0.164139  0.206291  1
  Si  Si170  1  0.750123  0.335542  0.206181  1
  Si  Si171  1  0.249983  0.835556  0.793873  1
  Si  Si172  1  0.250029  0.664152  0.793766  1
  Si  Si173  1  0.250025  0.164630  0.401114  1
  Si  Si174  1  0.250135  0.334414  0.400903  1
  Si  Si175  1  0.749963  0.834456  0.599175  1
  Si  Si176  1  0.749954  0.664669  0.598990  1
  Si  Si177  1  0.249948  0.165324  0.522435  1
  Si  Si178  1  0.249999  0.335021  0.522185  1
  Si  Si179  1  0.749938  0.835018  0.477893  1
  Si  Si180  1  0.749951  0.665325  0.477675  1
