# generated using pymatgen
data_SiO2
_symmetry_space_group_name_H-M   'P 1'
_cell_length_a   12.82821947
_cell_length_b   12.82938429
_cell_length_c   15.31141979
_cell_angle_alpha   90.00000000
_cell_angle_beta   90.00000000
_cell_angle_gamma   120.00000000
_symmetry_Int_Tables_number   1
_chemical_formula_structural   SiO2
_chemical_formula_sum   'Si36 O72'
_cell_volume   2182.31928511
_cell_formula_units_Z   36
loop_
 _symmetry_equiv_pos_site_id
 _symmetry_equiv_pos_as_xyz
  1  'x, y, z'
loop_
 _atom_site_type_symbol
 _atom_site_label
 _atom_site_symmetry_multiplicity
 _atom_site_fract_x
 _atom_site_fract_y
 _atom_site_fract_z
 _atom_site_occupancy
  O  O1  1  0.038017  0.345671  0.166480  1
  O  O2  1  0.037999  0.684863  0.166482  1
  Si  Si3  1  0.007490  0.240074  0.100222  1
  Si  Si4  1  0.007466  0.759934  0.100224  1
  O  O5  1  0.092968  0.542746  0.250080  1
  Si  Si6  1  0.099487  0.424686  0.250081  1
  Si  Si7  1  0.099472  0.667315  0.250080  1
  O  O8  1  0.112097  0.209717  0.109536  1
  O  O9  1  0.112067  0.894895  0.109536  1
  O  O10  1  0.007146  0.727651  0.000082  1
  O  O11  1  0.007169  0.272035  0.000080  1
  O  O12  1  0.253156  0.122834  0.121335  1
  O  O13  1  0.279387  0.999839  0.000098  1
  O  O14  1  0.279413  0.272060  0.000098  1
  O  O15  1  0.322088  0.345729  0.166489  1
  O  O16  1  0.234242  0.454156  0.250080  1
  O  O17  1  0.322054  0.968850  0.166488  1
  O  O18  1  0.234228  0.772589  0.250080  1
  Si  Si19  1  0.247046  0.999473  0.100234  1
  O  O20  1  0.464103  0.542833  0.250080  1
  O  O21  1  0.464103  0.913814  0.250080  1
  Si  Si22  1  0.339533  0.907324  0.250081  1
  Si  Si23  1  0.339559  0.424735  0.250081  1
  Si  Si24  1  0.247076  0.240103  0.100237  1
  Si  Si25  1  0.007467  0.759934  0.399936  1
  Si  Si26  1  0.007490  0.240074  0.399938  1
  O  O27  1  0.007169  0.272035  0.500081  1
  Si  Si28  1  0.006826  0.759612  0.600222  1
  O  O29  1  0.007146  0.727651  0.500079  1
  Si  Si30  1  0.006848  0.239753  0.600224  1
  O  O31  1  0.037999  0.684863  0.333679  1
  O  O32  1  0.112096  0.209716  0.390625  1
  O  O33  1  0.112067  0.894895  0.390625  1
  O  O34  1  0.038017  0.345672  0.333681  1
  O  O35  1  0.322088  0.345730  0.333671  1
  O  O36  1  0.322054  0.968850  0.333673  1
  Si  Si37  1  0.247479  0.000214  0.600212  1
  O  O38  1  0.217128  0.104818  0.609522  1
  Si  Si39  1  0.247047  0.999473  0.399926  1
  Si  Si40  1  0.247497  0.239774  0.600210  1
  Si  Si41  1  0.247076  0.240103  0.399924  1
  O  O42  1  0.279387  0.999839  0.500062  1
  O  O43  1  0.279414  0.272060  0.500063  1
  O  O44  1  0.130183  0.876885  0.621308  1
  O  O45  1  0.130209  0.245831  0.621307  1
  O  O46  1  0.253156  0.122833  0.378826  1
  O  O47  1  0.353093  0.030775  0.666475  1
  O  O48  1  0.353107  0.314819  0.666474  1
  Si  Si49  1  0.006848  0.239753  0.899937  1
  Si  Si50  1  0.006826  0.759612  0.899939  1
  O  O51  1  0.461530  0.227012  0.750080  1
  Si  Si52  1  0.432091  0.092283  0.750080  1
  Si  Si53  1  0.247497  0.239774  0.899951  1
  O  O54  1  0.130182  0.876885  0.878853  1
  O  O55  1  0.130209  0.245831  0.878853  1
  O  O56  1  0.353108  0.314819  0.833687  1
  O  O57  1  0.353094  0.030775  0.833686  1
  O  O58  1  0.217129  0.104818  0.890639  1
  Si  Si59  1  0.432107  0.332315  0.750081  1
  Si  Si60  1  0.247479  0.000214  0.899949  1
  O  O61  1  0.884135  0.122802  0.121308  1
  O  O62  1  0.884106  0.753856  0.121308  1
  O  O63  1  0.661207  0.684867  0.166474  1
  O  O64  1  0.661222  0.968911  0.166475  1
  O  O65  1  0.797186  0.894868  0.109522  1
  Si  Si66  1  0.766837  0.999472  0.100212  1
  Si  Si67  1  0.582209  0.667372  0.250080  1
  O  O68  1  0.552785  0.772675  0.250080  1
  Si  Si69  1  0.582226  0.907403  0.250081  1
  Si  Si70  1  0.766818  0.759912  0.100210  1
  O  O71  1  0.734929  0.999848  0.000062  1
  O  O72  1  0.734902  0.727626  0.000062  1
  O  O73  1  0.761161  0.876853  0.621336  1
  O  O74  1  0.884134  0.122802  0.378852  1
  O  O75  1  0.884106  0.753856  0.378853  1
  O  O76  1  0.734902  0.727626  0.500098  1
  O  O77  1  0.734929  0.999848  0.500098  1
  Si  Si78  1  0.766818  0.759912  0.399951  1
  Si  Si79  1  0.766836  0.999473  0.399949  1
  Si  Si80  1  0.767269  0.000213  0.600234  1
  Si  Si81  1  0.767240  0.759583  0.600237  1
  O  O82  1  0.902219  0.789969  0.609536  1
  O  O83  1  0.902249  0.104792  0.609536  1
  O  O84  1  0.797186  0.894868  0.390639  1
  O  O85  1  0.692228  0.653956  0.666490  1
  O  O86  1  0.976316  0.314823  0.666481  1
  O  O87  1  0.661222  0.968911  0.333685  1
  O  O88  1  0.661207  0.684867  0.333687  1
  O  O89  1  0.692261  0.030835  0.666488  1
  O  O90  1  0.976300  0.654014  0.666480  1
  O  O91  1  0.761161  0.876852  0.878825  1
  O  O92  1  0.976300  0.654014  0.833681  1
  O  O93  1  0.692261  0.030835  0.833673  1
  O  O94  1  0.692228  0.653956  0.833671  1
  O  O95  1  0.976316  0.314823  0.833680  1
  O  O96  1  0.902219  0.789969  0.890625  1
  O  O97  1  0.902249  0.104792  0.890625  1
  Si  Si98  1  0.914841  0.332369  0.750081  1
  O  O99  1  0.780073  0.545530  0.750080  1
  O  O100  1  0.780086  0.227096  0.750080  1
  O  O101  1  0.921347  0.456940  0.750080  1
  O  O102  1  0.550212  0.456852  0.750080  1
  O  O103  1  0.550211  0.085872  0.750080  1
  Si  Si104  1  0.767269  0.000213  0.899926  1
  Si  Si105  1  0.767240  0.759583  0.899924  1
  Si  Si106  1  0.674759  0.574952  0.750081  1
  Si  Si107  1  0.914829  0.575001  0.750081  1
  Si  Si108  1  0.674782  0.092361  0.750080  1
