# generated using pymatgen
data_SiO2
_symmetry_space_group_name_H-M   'P 1'
_cell_length_a   7.45909513
_cell_length_b   28.80531912
_cell_length_c   17.63521263
_cell_angle_alpha   90.00000000
_cell_angle_beta   90.00000000
_cell_angle_gamma   90.00000000
_symmetry_Int_Tables_number   1
_chemical_formula_structural   SiO2
_chemical_formula_sum   'Si72 O144'
_cell_volume   3789.13027717
_cell_formula_units_Z   72
loop_
 _symmetry_equiv_pos_site_id
 _symmetry_equiv_pos_as_xyz
  1  'x, y, z'
loop_
 _atom_site_type_symbol
 _atom_site_label
 _atom_site_symmetry_multiplicity
 _atom_site_fract_x
 _atom_site_fract_y
 _atom_site_fract_z
 _atom_site_occupancy
  Si  Si1  1  0.705942  0.452989  0.163017  1
  Si  Si2  1  0.706576  0.453122  0.337784  1
  Si  Si3  1  0.294322  0.453216  0.163025  1
  Si  Si4  1  0.294946  0.453261  0.338014  1
  Si  Si5  1  0.793418  0.262533  0.083216  1
  Si  Si6  1  0.795141  0.262886  0.415928  1
  Si  Si7  1  0.206464  0.262528  0.083509  1
  Si  Si8  1  0.207666  0.262728  0.416253  1
  Si  Si9  1  0.706218  0.365977  0.061652  1
  Si  Si10  1  0.707563  0.366203  0.439407  1
  Si  Si11  1  0.293623  0.365981  0.062254  1
  Si  Si12  1  0.295336  0.366108  0.438980  1
  Si  Si13  1  0.499275  0.117518  0.060235  1
  Si  Si14  1  0.502607  0.117359  0.440598  1
  Si  Si15  1  0.500132  0.204763  0.162578  1
  Si  Si16  1  0.501393  0.204507  0.338002  1
  Si  Si17  1  0.500884  0.012039  0.086149  1
  Si  Si18  1  0.501125  0.011906  0.414396  1
  O  O19  1  0.754280  0.315986  0.091401  1
  O  O20  1  0.752931  0.316204  0.409110  1
  O  O21  1  0.245751  0.315962  0.091934  1
  O  O22  1  0.250244  0.316001  0.409150  1
  O  O23  1  0.171638  0.490016  0.122811  1
  O  O24  1  0.172345  0.490005  0.378391  1
  O  O25  1  0.830311  0.490380  0.125387  1
  O  O26  1  0.831064  0.490555  0.375236  1
  O  O27  1  0.668450  0.232994  0.135945  1
  O  O28  1  0.669085  0.232931  0.364469  1
  O  O29  1  0.331369  0.232885  0.136117  1
  O  O30  1  0.333572  0.232702  0.364888  1
  O  O31  1  0.669021  0.123171  0.008844  1
  O  O32  1  0.673645  0.123092  0.491282  1
  O  O33  1  0.328235  0.123200  0.009571  1
  O  O34  1  0.332380  0.122934  0.491789  1
  O  O35  1  0.738771  0.404932  0.122722  1
  O  O36  1  0.740006  0.405180  0.378354  1
  O  O37  1  0.262134  0.404794  0.123683  1
  O  O38  1  0.263177  0.404853  0.377477  1
  O  O39  1  0.499514  0.066567  0.092391  1
  O  O40  1  0.502714  0.066437  0.408294  1
  O  O41  1  0.500170  0.156715  0.121442  1
  O  O42  1  0.501944  0.156517  0.379297  1
  O  O43  1  0.999901  0.253813  0.093979  1
  O  O44  1  0.001422  0.255181  0.402086  1
  O  O45  1  0.500223  0.464066  0.152874  1
  O  O46  1  0.500864  0.464155  0.348020  1
  O  O47  1  0.499774  0.366282  0.041855  1
  O  O48  1  0.501348  0.366790  0.459569  1
  O  O49  1  0.500629  0.198834  0.250275  1
  O  O50  1  0.745700  0.448983  0.250385  1
  O  O51  1  0.253654  0.450379  0.250549  1
  O  O52  1  0.756508  0.249210  0.499812  1
  O  O53  1  0.255309  0.249924  0.000127  1
  O  O54  1  0.993699  0.499686  0.000429  1
  Si  Si55  1  0.205151  0.045755  0.838445  1
  Si  Si56  1  0.207986  0.045917  0.663569  1
  Si  Si57  1  0.793540  0.045916  0.836938  1
  Si  Si58  1  0.796400  0.045851  0.662071  1
  Si  Si59  1  0.293607  0.236179  0.916241  1
  Si  Si60  1  0.295243  0.236338  0.583479  1
  Si  Si61  1  0.706132  0.236181  0.915947  1
  Si  Si62  1  0.708293  0.236485  0.583194  1
  Si  Si63  1  0.204887  0.132886  0.939421  1
  Si  Si64  1  0.209238  0.132840  0.561917  1
  Si  Si65  1  0.792643  0.132757  0.938794  1
  Si  Si66  1  0.796632  0.133116  0.561447  1
  Si  Si67  1  0.000404  0.381564  0.940865  1
  Si  Si68  1  0.001862  0.381417  0.560326  1
  Si  Si69  1  0.000137  0.294501  0.838054  1
  Si  Si70  1  0.001815  0.294147  0.662627  1
  Si  Si71  1  0.000013  0.487016  0.914584  1
  Si  Si72  1  0.000487  0.486885  0.586445  1
  O  O73  1  0.250741  0.182909  0.909402  1
  O  O74  1  0.256798  0.182855  0.591673  1
  O  O75  1  0.748094  0.182868  0.908803  1
  O  O76  1  0.748214  0.183066  0.591305  1
  O  O77  1  0.669296  0.008536  0.874629  1
  O  O78  1  0.673490  0.008966  0.622164  1
  O  O79  1  0.328013  0.008828  0.878292  1
  O  O80  1  0.332208  0.008530  0.625847  1
  O  O81  1  0.167635  0.266120  0.864772  1
  O  O82  1  0.170242  0.265817  0.636327  1
  O  O83  1  0.832131  0.266238  0.864628  1
  O  O84  1  0.833194  0.266107  0.635816  1
  O  O85  1  0.170392  0.375963  0.992176  1
  O  O86  1  0.171741  0.375852  0.508992  1
  O  O87  1  0.829130  0.375889  0.991427  1
  O  O88  1  0.830969  0.375695  0.509594  1
  O  O89  1  0.237327  0.094022  0.878174  1
  O  O90  1  0.241154  0.093988  0.623241  1
  O  O91  1  0.760346  0.093950  0.877407  1
  O  O92  1  0.764500  0.094201  0.622604  1
  O  O93  1  0.001029  0.432495  0.908683  1
  O  O94  1  0.002083  0.432360  0.592468  1
  O  O95  1  0.000805  0.342461  0.879455  1
  O  O96  1  0.002722  0.342192  0.621484  1
  O  O97  1  0.499818  0.243804  0.902088  1
  O  O98  1  0.501758  0.245122  0.593975  1
  O  O99  1  0.999080  0.034858  0.847801  1
  O  O100  1  0.002423  0.034899  0.652682  1
  O  O101  1  0.998597  0.132168  0.959462  1
  O  O102  1  0.003061  0.132687  0.541593  1
  O  O103  1  0.000744  0.300144  0.750317  1
  O  O104  1  0.246731  0.049374  0.751135  1
  O  O105  1  0.754788  0.049405  0.749383  1
  O  O106  1  0.245931  0.249150  0.500223  1
  O  O107  1  0.993436  0.499510  0.500573  1
  O  O108  1  0.744731  0.249702  0.999912  1
  Si  Si109  1  0.205445  0.953224  0.162078  1
  Si  Si110  1  0.208145  0.953007  0.336947  1
  Si  Si111  1  0.793838  0.953086  0.163529  1
  Si  Si112  1  0.796542  0.953092  0.338401  1
  Si  Si113  1  0.294025  0.762509  0.082946  1
  Si  Si114  1  0.295792  0.762489  0.417464  1
  Si  Si115  1  0.707073  0.762541  0.083307  1
  Si  Si116  1  0.708843  0.762355  0.417652  1
  Si  Si117  1  0.205531  0.865883  0.061636  1
  Si  Si118  1  0.209497  0.866009  0.438402  1
  Si  Si119  1  0.792934  0.866062  0.062127  1
  Si  Si120  1  0.796884  0.865771  0.438868  1
  Si  Si121  1  0.000712  0.617505  0.060515  1
  Si  Si122  1  0.002125  0.617515  0.440355  1
  Si  Si123  1  0.000791  0.704851  0.162579  1
  Si  Si124  1  0.002401  0.704769  0.338081  1
  Si  Si125  1  0.999777  0.512019  0.086413  1
  Si  Si126  1  0.000331  0.512011  0.414652  1
  O  O127  1  0.254282  0.815927  0.091388  1
  O  O128  1  0.257325  0.815957  0.408866  1
  O  O129  1  0.745513  0.816019  0.091842  1
  O  O130  1  0.748415  0.815778  0.409217  1
  O  O131  1  0.669634  0.990394  0.125622  1
  O  O132  1  0.673643  0.989889  0.378535  1
  O  O133  1  0.328336  0.990069  0.122058  1
  O  O134  1  0.332324  0.990321  0.374864  1
  O  O135  1  0.169148  0.732888  0.135543  1
  O  O136  1  0.170855  0.732931  0.364750  1
  O  O137  1  0.832069  0.732929  0.135935  1
  O  O138  1  0.833742  0.732715  0.365074  1
  O  O139  1  0.754893  0.949728  0.251079  1
  O  O140  1  0.170583  0.623146  0.009173  1
  O  O141  1  0.172017  0.623121  0.491680  1
  O  O142  1  0.829825  0.623261  0.009792  1
  O  O143  1  0.831257  0.623322  0.491077  1
  O  O144  1  0.237472  0.904829  0.122766  1
  O  O145  1  0.241264  0.904847  0.377024  1
  O  O146  1  0.760923  0.904939  0.123402  1
  O  O147  1  0.764810  0.904653  0.377629  1
  O  O148  1  0.001036  0.566548  0.092664  1
  O  O149  1  0.002124  0.566524  0.408433  1
  O  O150  1  0.001002  0.656690  0.121770  1
  O  O151  1  0.003041  0.656614  0.378934  1
  O  O152  1  0.500514  0.753773  0.093712  1
  O  O153  1  0.502301  0.753656  0.407015  1
  O  O154  1  0.999394  0.964130  0.152665  1
  O  O155  1  0.002574  0.964022  0.347824  1
  O  O156  1  0.999100  0.866253  0.041790  1
  O  O157  1  0.003315  0.866170  0.458724  1
  O  O158  1  0.001676  0.699254  0.250323  1
  O  O159  1  0.247066  0.949740  0.249388  1
  O  O160  1  0.508148  0.999666  0.000191  1
  Si  Si161  1  0.706266  0.545982  0.837863  1
  Si  Si162  1  0.706778  0.545872  0.663103  1
  Si  Si163  1  0.294654  0.545721  0.837908  1
  Si  Si164  1  0.295150  0.545703  0.662908  1
  Si  Si165  1  0.794317  0.736154  0.916065  1
  Si  Si166  1  0.795702  0.736016  0.584943  1
  Si  Si167  1  0.206847  0.736125  0.915693  1
  Si  Si168  1  0.208221  0.736154  0.584715  1
  Si  Si169  1  0.706466  0.632834  0.939626  1
  Si  Si170  1  0.707854  0.632720  0.561296  1
  Si  Si171  1  0.294227  0.632780  0.939126  1
  Si  Si172  1  0.295628  0.632774  0.561723  1
  Si  Si173  1  0.499597  0.881558  0.940807  1
  Si  Si174  1  0.502834  0.881565  0.559689  1
  Si  Si175  1  0.500739  0.794500  0.837947  1
  Si  Si176  1  0.501980  0.794523  0.662596  1
  Si  Si177  1  0.500669  0.986989  0.914359  1
  Si  Si178  1  0.500994  0.986990  0.586212  1
  O  O179  1  0.751727  0.682858  0.909459  1
  O  O180  1  0.753107  0.682715  0.591638  1
  O  O181  1  0.249219  0.682829  0.909036  1
  O  O182  1  0.250818  0.682879  0.591610  1
  O  O183  1  0.171991  0.508861  0.877993  1
  O  O184  1  0.172537  0.508868  0.622739  1
  O  O185  1  0.830696  0.508538  0.875310  1
  O  O186  1  0.831270  0.508343  0.625904  1
  O  O187  1  0.668310  0.766087  0.864565  1
  O  O188  1  0.669659  0.766011  0.636350  1
  O  O189  1  0.332825  0.766038  0.864107  1
  O  O190  1  0.334180  0.766149  0.636133  1
  O  O191  1  0.669776  0.875991  0.992015  1
  O  O192  1  0.673893  0.875899  0.508998  1
  O  O193  1  0.332605  0.876022  0.508499  1
  O  O194  1  0.739281  0.593921  0.878496  1
  O  O195  1  0.740405  0.593736  0.622321  1
  O  O196  1  0.262317  0.594020  0.877631  1
  O  O197  1  0.263279  0.594037  0.623223  1
  O  O198  1  0.499522  0.932461  0.908497  1
  O  O199  1  0.502730  0.932454  0.592106  1
  O  O200  1  0.500307  0.842365  0.879595  1
  O  O201  1  0.502224  0.842369  0.620895  1
  O  O202  1  0.000525  0.743717  0.901829  1
  O  O203  1  0.001970  0.743655  0.598902  1
  O  O204  1  0.500578  0.534882  0.848011  1
  O  O205  1  0.501071  0.534819  0.652891  1
  O  O206  1  0.500225  0.632160  0.959746  1
  O  O207  1  0.501640  0.632074  0.541142  1
  O  O208  1  0.501582  0.800583  0.750274  1
  O  O209  1  0.745834  0.550150  0.750496  1
  O  O210  1  0.254017  0.548719  0.750387  1
  O  O211  1  0.757332  0.749795  0.501077  1
  O  O212  1  0.245638  0.749968  0.999497  1
  O  O213  1  0.328491  0.875922  0.991470  1
  O  O214  1  0.246491  0.749910  0.500819  1
  O  O215  1  0.493511  0.999527  0.500334  1
  O  O216  1  0.756168  0.750019  0.999914  1
