# generated using pymatgen
data_SiO2
_symmetry_space_group_name_H-M   'P 1'
_cell_length_a   10.21807860
_cell_length_b   12.56904554
_cell_length_c   22.10607775
_cell_angle_alpha   90.00000000
_cell_angle_beta   90.00000000
_cell_angle_gamma   90.00000000
_symmetry_Int_Tables_number   1
_chemical_formula_structural   SiO2
_chemical_formula_sum   'Si48 O96'
_cell_volume   2839.11661937
_cell_formula_units_Z   48
loop_
 _symmetry_equiv_pos_site_id
 _symmetry_equiv_pos_as_xyz
  1  'x, y, z'
loop_
 _atom_site_type_symbol
 _atom_site_label
 _atom_site_symmetry_multiplicity
 _atom_site_fract_x
 _atom_site_fract_y
 _atom_site_fract_z
 _atom_site_occupancy
  O  O1  1  0.218014  0.440798  0.054425  1
  O  O2  1  0.782189  0.440800  0.054426  1
  O  O3  1  0.218012  0.058986  0.054428  1
  O  O4  1  0.782194  0.058989  0.054426  1
  O  O5  1  0.372987  0.389368  0.140762  1
  O  O6  1  0.627213  0.389367  0.140762  1
  O  O7  1  0.372991  0.110421  0.140761  1
  O  O8  1  0.627217  0.110421  0.140760  1
  O  O9  1  0.125132  0.396272  0.164379  1
  O  O10  1  0.875067  0.396272  0.164381  1
  O  O11  1  0.125136  0.103520  0.164384  1
  O  O12  1  0.875071  0.103521  0.164381  1
  Si  Si13  1  0.711133  0.499895  0.000046  1
  Si  Si14  1  0.000101  0.373011  0.203911  1
  Si  Si15  1  0.000102  0.126785  0.203913  1
  Si  Si16  1  0.500102  0.126785  0.296180  1
  O  O17  1  0.220052  0.249893  0.099135  1
  O  O18  1  0.780152  0.249895  0.099134  1
  O  O19  1  0.500104  0.061689  0.234787  1
  O  O20  1  0.500101  0.438107  0.234788  1
  O  O21  1  0.000103  0.438113  0.265302  1
  O  O22  1  0.000100  0.061686  0.265306  1
  O  O23  1  0.500102  0.249898  0.281799  1
  O  O24  1  0.000101  0.249898  0.218295  1
  Si  Si25  1  0.231271  0.371879  0.114642  1
  Si  Si26  1  0.768929  0.371880  0.114643  1
  Si  Si27  1  0.231272  0.127908  0.114644  1
  Si  Si28  1  0.768934  0.127910  0.114643  1
  Si  Si29  1  0.500104  0.052637  0.163572  1
  Si  Si30  1  0.500100  0.447153  0.163573  1
  Si  Si31  1  0.500103  0.373011  0.296181  1
  Si  Si32  1  0.289070  0.499894  0.000045  1
  O  O33  1  0.282193  0.058994  0.445666  1
  O  O34  1  0.718009  0.058995  0.445667  1
  O  O35  1  0.282189  0.440800  0.445664  1
  O  O36  1  0.718016  0.440802  0.445663  1
  O  O37  1  0.127214  0.110420  0.359331  1
  O  O38  1  0.872988  0.110420  0.359332  1
  O  O39  1  0.127214  0.389377  0.359328  1
  O  O40  1  0.872992  0.389377  0.359328  1
  O  O41  1  0.280146  0.249897  0.400955  1
  O  O42  1  0.720058  0.249898  0.400956  1
  O  O43  1  0.000102  0.440725  0.630362  1
  O  O44  1  0.000103  0.059068  0.630365  1
  O  O45  1  0.879767  0.086266  0.530828  1
  O  O46  1  0.120437  0.086267  0.530828  1
  O  O47  1  0.879769  0.413531  0.530825  1
  O  O48  1  0.120435  0.413530  0.530825  1
  O  O49  1  0.000101  0.249898  0.577633  1
  Si  Si50  1  0.268931  0.127911  0.385449  1
  Si  Si51  1  0.731271  0.127912  0.385450  1
  Si  Si52  1  0.268928  0.371882  0.385447  1
  Si  Si53  1  0.731277  0.371883  0.385447  1
  Si  Si54  1  0.000103  0.447165  0.336517  1
  Si  Si55  1  0.000100  0.052636  0.336521  1
  Si  Si56  1  0.000102  0.125806  0.569139  1
  Si  Si57  1  0.000101  0.373989  0.569136  1
  Si  Si58  1  0.789070  0.499897  0.500044  1
  O  O59  1  0.625137  0.396274  0.335710  1
  O  O60  1  0.375068  0.103521  0.335710  1
  O  O61  1  0.625134  0.103521  0.335711  1
  O  O62  1  0.375070  0.396274  0.335711  1
  Si  Si63  1  0.211135  0.499896  0.500045  1
  O  O64  1  0.500100  0.059066  0.869730  1
  O  O65  1  0.500102  0.440721  0.869728  1
  O  O66  1  0.620435  0.413528  0.969265  1
  O  O67  1  0.379770  0.413529  0.969266  1
  O  O68  1  0.620434  0.086259  0.969267  1
  O  O69  1  0.379768  0.086259  0.969268  1
  O  O70  1  0.500101  0.249893  0.922462  1
  Si  Si71  1  0.500102  0.373986  0.930955  1
  Si  Si72  1  0.500101  0.125801  0.930957  1
  O  O73  1  0.500104  0.940720  0.130365  1
  O  O74  1  0.500100  0.559068  0.130364  1
  O  O75  1  0.379768  0.586260  0.030826  1
  O  O76  1  0.620433  0.586260  0.030826  1
  O  O77  1  0.379771  0.913526  0.030827  1
  O  O78  1  0.620437  0.913527  0.030827  1
  O  O79  1  0.500103  0.749894  0.077632  1
  Si  Si80  1  0.500101  0.625802  0.069137  1
  Si  Si81  1  0.500104  0.873985  0.069138  1
  Si  Si82  1  0.711135  0.999893  0.000046  1
  Si  Si83  1  0.289069  0.999892  0.000048  1
  O  O84  1  0.718008  0.940805  0.554429  1
  O  O85  1  0.282196  0.940805  0.554428  1
  O  O86  1  0.718010  0.558991  0.554424  1
  O  O87  1  0.282195  0.558990  0.554425  1
  O  O88  1  0.872991  0.889366  0.640760  1
  O  O89  1  0.127217  0.889367  0.640760  1
  O  O90  1  0.872989  0.610425  0.640757  1
  O  O91  1  0.127216  0.610425  0.640757  1
  O  O92  1  0.720044  0.749896  0.599134  1
  O  O93  1  0.280161  0.749896  0.599133  1
  O  O94  1  0.000103  0.559080  0.369727  1
  O  O95  1  0.000101  0.940722  0.369731  1
  O  O96  1  0.120435  0.913537  0.469270  1
  O  O97  1  0.879767  0.913536  0.469270  1
  O  O98  1  0.120436  0.586264  0.469266  1
  O  O99  1  0.879770  0.586264  0.469266  1
  O  O100  1  0.000103  0.749902  0.422468  1
  Si  Si101  1  0.731270  0.871881  0.614644  1
  Si  Si102  1  0.268937  0.871881  0.614643  1
  Si  Si103  1  0.731269  0.627911  0.614641  1
  Si  Si104  1  0.268936  0.627911  0.614641  1
  Si  Si105  1  0.000102  0.552642  0.663569  1
  Si  Si106  1  0.000104  0.947151  0.663571  1
  Si  Si107  1  0.000101  0.873993  0.430961  1
  Si  Si108  1  0.000103  0.625809  0.430956  1
  O  O109  1  0.375069  0.603517  0.664381  1
  O  O110  1  0.625135  0.603517  0.664381  1
  O  O111  1  0.625137  0.896270  0.664385  1
  O  O112  1  0.375071  0.896270  0.664383  1
  Si  Si113  1  0.211138  0.999902  0.500048  1
  Si  Si114  1  0.789065  0.999901  0.500049  1
  O  O115  1  0.782192  0.558989  0.945665  1
  O  O116  1  0.218011  0.558987  0.945665  1
  O  O117  1  0.782193  0.940799  0.945666  1
  O  O118  1  0.218011  0.940797  0.945668  1
  O  O119  1  0.627215  0.610423  0.859332  1
  O  O120  1  0.372988  0.610422  0.859331  1
  O  O121  1  0.627214  0.889365  0.859334  1
  O  O122  1  0.372987  0.889364  0.859334  1
  Si  Si123  1  0.500103  0.873005  0.703914  1
  Si  Si124  1  0.500102  0.626779  0.703912  1
  Si  Si125  1  0.000101  0.626782  0.796178  1
  Si  Si126  1  0.000102  0.873009  0.796180  1
  O  O127  1  0.875069  0.603518  0.835709  1
  O  O128  1  0.125134  0.603517  0.835709  1
  O  O129  1  0.875068  0.896272  0.835709  1
  O  O130  1  0.125134  0.896272  0.835711  1
  O  O131  1  0.780158  0.749894  0.900957  1
  O  O132  1  0.220044  0.749892  0.900957  1
  O  O133  1  0.000101  0.561690  0.734784  1
  O  O134  1  0.000104  0.938104  0.734786  1
  O  O135  1  0.500100  0.938100  0.765308  1
  O  O136  1  0.500103  0.561684  0.765305  1
  O  O137  1  0.000102  0.749896  0.781797  1
  O  O138  1  0.500102  0.749892  0.718295  1
  Si  Si139  1  0.768934  0.627909  0.885449  1
  Si  Si140  1  0.231269  0.627908  0.885448  1
  Si  Si141  1  0.768934  0.871879  0.885449  1
  Si  Si142  1  0.231268  0.871878  0.885451  1
  Si  Si143  1  0.500100  0.947149  0.836523  1
  Si  Si144  1  0.500102  0.552638  0.836521  1
