# generated using pymatgen
data_SiO2
_symmetry_space_group_name_H-M   'P 1'
_cell_length_a   13.80613488
_cell_length_b   22.24974102
_cell_length_c   20.14838188
_cell_angle_alpha   90.00000000
_cell_angle_beta   90.00000000
_cell_angle_gamma   90.00000000
_symmetry_Int_Tables_number   1
_chemical_formula_structural   SiO2
_chemical_formula_sum   'Si112 O224'
_cell_volume   6189.2388926
_cell_formula_units_Z   112
loop_
 _symmetry_equiv_pos_site_id
 _symmetry_equiv_pos_as_xyz
  1  'x, y, z'
loop_
 _atom_site_type_symbol
 _atom_site_label
 _atom_site_symmetry_multiplicity
 _atom_site_fract_x
 _atom_site_fract_y
 _atom_site_fract_z
 _atom_site_occupancy
  Si  Si1  1  0.500079  0.027372  0.180734  1
  O  O2  1  0.240702  0.107587  0.372567  1
  O  O3  1  0.759519  0.107652  0.372542  1
  O  O4  1  0.400065  0.064531  0.425368  1
  O  O5  1  0.600040  0.064569  0.425181  1
  Si  Si6  1  0.887624  0.249944  0.269055  1
  O  O7  1  0.750442  0.131257  0.000081  1
  O  O8  1  0.156225  0.308697  0.086973  1
  O  O9  1  0.844517  0.309062  0.086608  1
  O  O10  1  0.156220  0.191202  0.086697  1
  O  O11  1  0.843704  0.191498  0.086846  1
  O  O12  1  0.093017  0.089731  0.048135  1
  O  O13  1  0.907763  0.090170  0.048592  1
  O  O14  1  0.242410  0.094679  0.119133  1
  O  O15  1  0.757778  0.094740  0.119105  1
  O  O16  1  0.401084  0.062358  0.176776  1
  O  O17  1  0.599050  0.062381  0.176757  1
  Si  Si18  1  0.112456  0.249840  0.269123  1
  Si  Si19  1  0.888441  0.250213  0.115570  1
  O  O20  1  0.254381  0.101121  0.245613  1
  O  O21  1  0.745709  0.101198  0.245597  1
  O  O22  1  0.163438  0.307608  0.296575  1
  O  O23  1  0.836637  0.307673  0.296613  1
  O  O24  1  0.163540  0.192125  0.296633  1
  O  O25  1  0.836519  0.192201  0.296451  1
  O  O26  1  0.092734  0.090394  0.300553  1
  O  O27  1  0.907423  0.090463  0.300468  1
  O  O28  1  0.000097  0.005462  0.248761  1
  O  O29  1  0.999971  0.018256  0.374748  1
  Si  Si30  1  0.111740  0.249897  0.115641  1
  O  O31  1  0.000248  0.019811  0.123264  1
  Si  Si32  1  0.000157  0.050135  0.053556  1
  O  O33  1  0.124773  0.249803  0.192265  1
  O  O34  1  0.875324  0.250171  0.192195  1
  O  O35  1  0.000098  0.249936  0.103562  1
  O  O36  1  0.000032  0.249856  0.282454  1
  Si  Si37  1  0.285356  0.065971  0.427713  1
  Si  Si38  1  0.714754  0.066022  0.427642  1
  Si  Si39  1  0.185868  0.127266  0.062983  1
  Si  Si40  1  0.814592  0.127453  0.063153  1
  Si  Si41  1  0.287215  0.065897  0.182343  1
  Si  Si42  1  0.712916  0.065970  0.182321  1
  Si  Si43  1  0.191152  0.124281  0.304889  1
  Si  Si44  1  0.809003  0.124356  0.304839  1
  Si  Si45  1  0.000040  0.051438  0.306811  1
  Si  Si46  1  0.500072  0.030599  0.430677  1
  O  O47  1  0.250578  0.131239  0.000191  1
  O  O48  1  0.000191  0.001864  0.498913  1
  O  O49  1  0.750090  0.080935  0.500110  1
  O  O50  1  0.259816  0.107738  0.627621  1
  O  O51  1  0.740358  0.107657  0.627607  1
  O  O52  1  0.100024  0.064572  0.576015  1
  O  O53  1  0.900064  0.064555  0.575889  1
  O  O54  1  0.500050  0.004855  0.749900  1
  O  O55  1  0.343267  0.191683  0.913246  1
  O  O56  1  0.655576  0.190715  0.913450  1
  O  O57  1  0.344647  0.309214  0.913498  1
  O  O58  1  0.656651  0.308253  0.913219  1
  O  O59  1  0.407982  0.090550  0.951232  1
  O  O60  1  0.593397  0.088916  0.952425  1
  O  O61  1  0.257523  0.094793  0.881113  1
  O  O62  1  0.742631  0.094515  0.881164  1
  O  O63  1  0.098976  0.062222  0.823190  1
  O  O64  1  0.901186  0.062164  0.823194  1
  O  O65  1  0.250186  0.000010  0.811626  1
  O  O66  1  0.245645  0.101284  0.754611  1
  O  O67  1  0.754459  0.101296  0.754644  1
  O  O68  1  0.336481  0.192354  0.703732  1
  O  O69  1  0.663512  0.192281  0.703461  1
  O  O70  1  0.336634  0.307790  0.703464  1
  O  O71  1  0.663516  0.307720  0.703708  1
  O  O72  1  0.407416  0.090628  0.699783  1
  O  O73  1  0.592742  0.090536  0.699751  1
  O  O74  1  0.499980  0.019703  0.623702  1
  Si  Si75  1  0.612444  0.249961  0.731060  1
  O  O76  1  0.500152  0.020822  0.875437  1
  O  O77  1  0.999278  0.001233  0.998335  1
  O  O78  1  0.375337  0.250334  0.807936  1
  O  O79  1  0.624725  0.249680  0.807916  1
  O  O80  1  0.500034  0.249892  0.896622  1
  O  O81  1  0.500033  0.250004  0.717671  1
  Si  Si82  1  0.214737  0.066050  0.572709  1
  Si  Si83  1  0.785351  0.066003  0.572645  1
  Si  Si84  1  0.314445  0.127588  0.936968  1
  Si  Si85  1  0.685763  0.126922  0.937307  1
  Si  Si86  1  0.212838  0.065988  0.817846  1
  Si  Si87  1  0.787327  0.065901  0.817811  1
  Si  Si88  1  0.308967  0.124509  0.695406  1
  Si  Si89  1  0.691171  0.124432  0.695367  1
  Si  Si90  1  0.500030  0.051688  0.692539  1
  Si  Si91  1  0.000056  0.030743  0.569271  1
  Si  Si92  1  0.499826  0.050044  0.945844  1
  Si  Si93  1  0.000107  0.027131  0.818565  1
  Si  Si94  1  0.388383  0.250312  0.884565  1
  Si  Si95  1  0.611681  0.249586  0.884544  1
  Si  Si96  1  0.387626  0.250096  0.731078  1
  O  O97  1  0.249894  0.080932  0.500140  1
  O  O98  1  0.250055  0.000006  0.586910  1
  Si  Si99  1  0.500016  0.472740  0.181355  1
  Si  Si100  1  0.999946  0.527359  0.180817  1
  O  O101  1  0.240276  0.392229  0.372506  1
  O  O102  1  0.759733  0.392284  0.372483  1
  O  O103  1  0.740719  0.607709  0.372471  1
  O  O104  1  0.259231  0.607627  0.372460  1
  O  O105  1  0.399994  0.435365  0.424154  1
  O  O106  1  0.600022  0.435373  0.424157  1
  O  O107  1  0.900061  0.564459  0.425178  1
  O  O108  1  0.099909  0.564441  0.425201  1
  O  O109  1  0.249948  0.499918  0.413241  1
  O  O110  1  0.750022  0.499963  0.413228  1
  O  O111  1  0.250013  0.580884  0.499990  1
  O  O112  1  0.249429  0.631219  0.000127  1
  O  O113  1  0.092251  0.409867  0.048337  1
  O  O114  1  0.906705  0.410808  0.047463  1
  O  O115  1  0.592082  0.590523  0.048772  1
  O  O116  1  0.406686  0.588901  0.047574  1
  O  O117  1  0.242380  0.405398  0.118987  1
  O  O118  1  0.757630  0.405340  0.118976  1
  O  O119  1  0.742344  0.594752  0.119030  1
  O  O120  1  0.257683  0.594487  0.118990  1
  O  O121  1  0.401112  0.437667  0.176943  1
  O  O122  1  0.598926  0.437675  0.176882  1
  O  O123  1  0.901008  0.562413  0.176747  1
  O  O124  1  0.098938  0.562346  0.176683  1
  O  O125  1  0.249966  0.499945  0.188688  1
  O  O126  1  0.749989  0.499993  0.188507  1
  O  O127  1  0.254345  0.398578  0.245500  1
  O  O128  1  0.745695  0.398655  0.245469  1
  O  O129  1  0.754298  0.601279  0.245528  1
  O  O130  1  0.245632  0.601346  0.245477  1
  O  O131  1  0.092644  0.409407  0.300408  1
  O  O132  1  0.907370  0.409455  0.300392  1
  O  O133  1  0.592665  0.590645  0.300613  1
  O  O134  1  0.407236  0.590509  0.300554  1
  O  O135  1  0.000018  0.494818  0.249498  1
  O  O136  1  0.500102  0.504918  0.250311  1
  O  O137  1  0.000002  0.481239  0.375334  1
  O  O138  1  0.500011  0.519623  0.376494  1
  O  O139  1  0.999964  0.498433  0.499365  1
  Si  Si140  1  0.500240  0.550022  0.054297  1
  O  O141  1  0.999728  0.479216  0.124215  1
  O  O142  1  0.499920  0.520976  0.124806  1
  O  O143  1  0.750002  0.580883  0.499995  1
  O  O144  1  0.503155  0.499549  0.000822  1
  Si  Si145  1  0.285278  0.433888  0.427468  1
  Si  Si146  1  0.714740  0.433923  0.427463  1
  Si  Si147  1  0.785362  0.565980  0.427529  1
  Si  Si148  1  0.214608  0.565936  0.427545  1
  Si  Si149  1  0.185471  0.372649  0.063087  1
  Si  Si150  1  0.814327  0.372874  0.062792  1
  Si  Si151  1  0.685557  0.627597  0.063155  1
  Si  Si152  1  0.314354  0.626921  0.062789  1
  Si  Si153  1  0.287235  0.433960  0.182337  1
  Si  Si154  1  0.712805  0.433985  0.182270  1
  Si  Si155  1  0.787138  0.566012  0.182288  1
  Si  Si156  1  0.212795  0.565949  0.182309  1
  Si  Si157  1  0.191024  0.375460  0.304762  1
  Si  Si158  1  0.808984  0.375522  0.304740  1
  Si  Si159  1  0.691152  0.624493  0.304819  1
  Si  Si160  1  0.308815  0.624427  0.304830  1
  Si  Si161  1  0.000027  0.448391  0.307159  1
  Si  Si162  1  0.500019  0.551709  0.307716  1
  Si  Si163  1  0.999977  0.530456  0.430720  1
  Si  Si164  1  0.500003  0.469183  0.430650  1
  Si  Si165  1  0.999968  0.449997  0.053817  1
  O  O166  1  0.750020  0.418988  0.499992  1
  O  O167  1  0.749421  0.368596  0.000121  1
  O  O168  1  0.002182  0.500471  0.000340  1
  O  O169  1  0.249600  0.368660  0.000016  1
  Si  Si170  1  0.500252  0.449931  0.946402  1
  O  O171  1  0.500008  0.498270  0.500897  1
  O  O172  1  0.759313  0.607609  0.627545  1
  O  O173  1  0.240720  0.607668  0.627534  1
  O  O174  1  0.259750  0.392340  0.627542  1
  O  O175  1  0.740202  0.392256  0.627518  1
  O  O176  1  0.599940  0.564475  0.574828  1
  O  O177  1  0.400078  0.564483  0.574828  1
  O  O178  1  0.100010  0.435349  0.575863  1
  O  O179  1  0.899968  0.435334  0.575888  1
  O  O180  1  0.749954  0.499922  0.586746  1
  O  O181  1  0.250021  0.499965  0.586744  1
  Si  Si182  1  0.500025  0.527506  0.819452  1
  Si  Si183  1  0.999962  0.472637  0.818917  1
  O  O184  1  0.906828  0.589397  0.952110  1
  O  O185  1  0.092099  0.590358  0.951211  1
  O  O186  1  0.406708  0.410998  0.952522  1
  O  O187  1  0.592084  0.409388  0.951293  1
  O  O188  1  0.757625  0.594815  0.881021  1
  O  O189  1  0.242402  0.594769  0.881029  1
  O  O190  1  0.257580  0.405386  0.881107  1
  O  O191  1  0.742473  0.405114  0.881042  1
  O  O192  1  0.599007  0.562491  0.823386  1
  O  O193  1  0.401056  0.562509  0.823341  1
  O  O194  1  0.098909  0.437633  0.823215  1
  O  O195  1  0.901073  0.437559  0.823137  1
  O  O196  1  0.749982  0.499964  0.811732  1
  O  O197  1  0.250003  0.500022  0.811577  1
  O  O198  1  0.745695  0.601181  0.754522  1
  O  O199  1  0.254368  0.601258  0.754504  1
  O  O200  1  0.245660  0.398725  0.754582  1
  O  O201  1  0.754313  0.398776  0.754513  1
  O  O202  1  0.907315  0.590496  0.699501  1
  O  O203  1  0.092724  0.590550  0.699486  1
  O  O204  1  0.407344  0.409568  0.699714  1
  O  O205  1  0.592594  0.409455  0.699665  1
  O  O206  1  0.000039  0.505056  0.750119  1
  O  O207  1  0.500090  0.494707  0.750942  1
  O  O208  1  0.000014  0.519438  0.623836  1
  O  O209  1  0.500014  0.481450  0.625007  1
  O  O210  1  0.999726  0.520508  0.875769  1
  O  O211  1  0.499931  0.479735  0.876367  1
  Si  Si212  1  0.714642  0.565944  0.572450  1
  Si  Si213  1  0.285379  0.565979  0.572452  1
  Si  Si214  1  0.214728  0.433926  0.572532  1
  Si  Si215  1  0.785251  0.433884  0.572539  1
  Si  Si216  1  0.814278  0.627261  0.937217  1
  Si  Si217  1  0.185511  0.627491  0.936934  1
  Si  Si218  1  0.314387  0.373007  0.937293  1
  Si  Si219  1  0.685549  0.372337  0.936910  1
  Si  Si220  1  0.712873  0.566000  0.817819  1
  Si  Si221  1  0.287192  0.566035  0.817772  1
  Si  Si222  1  0.212783  0.434020  0.817802  1
  Si  Si223  1  0.787188  0.433947  0.817803  1
  Si  Si224  1  0.808848  0.624350  0.695213  1
  Si  Si225  1  0.191188  0.624416  0.695205  1
  Si  Si226  1  0.308971  0.375629  0.695307  1
  Si  Si227  1  0.691010  0.375558  0.695308  1
  Si  Si228  1  0.000043  0.551635  0.692530  1
  Si  Si229  1  0.500027  0.448492  0.693100  1
  Si  Si230  1  0.999982  0.469165  0.569517  1
  Si  Si231  1  0.500005  0.530478  0.569439  1
  Si  Si232  1  0.999964  0.550113  0.945933  1
  O  O233  1  0.749545  0.631302  0.999994  1
  O  O234  1  0.250011  0.418986  0.500007  1
  O  O235  1  0.500323  0.998436  0.499245  1
  O  O236  1  0.250040  0.999876  0.188478  1
  O  O237  1  0.740803  0.892354  0.372564  1
  O  O238  1  0.259373  0.892276  0.372566  1
  O  O239  1  0.900075  0.935444  0.425374  1
  O  O240  1  0.100002  0.935427  0.425244  1
  O  O241  1  0.250066  0.999951  0.413406  1
  O  O242  1  0.750542  0.868585  0.000167  1
  O  O243  1  0.655317  0.809189  0.086643  1
  O  O244  1  0.343505  0.808224  0.086863  1
  O  O245  1  0.656726  0.691669  0.086944  1
  O  O246  1  0.344557  0.690707  0.086662  1
  O  O247  1  0.593380  0.911008  0.047469  1
  O  O248  1  0.408012  0.909366  0.048656  1
  O  O249  1  0.742304  0.905360  0.119046  1
  O  O250  1  0.257877  0.905107  0.119104  1
  O  O251  1  0.901113  0.937400  0.176723  1
  O  O252  1  0.099087  0.937331  0.176755  1
  O  O253  1  0.754332  0.898687  0.245564  1
  O  O254  1  0.245866  0.898601  0.245588  1
  O  O255  1  0.663442  0.807788  0.296788  1
  O  O256  1  0.336459  0.807750  0.296417  1
  O  O257  1  0.663605  0.692340  0.296491  1
  O  O258  1  0.336555  0.692274  0.296755  1
  O  O259  1  0.592786  0.909550  0.300674  1
  O  O260  1  0.407428  0.909450  0.300666  1
  O  O261  1  0.500045  0.994617  0.249267  1
  O  O262  1  0.499985  0.981504  0.375190  1
  O  O263  1  0.500136  0.979532  0.123874  1
  O  O264  1  0.624791  0.750347  0.192293  1
  O  O265  1  0.375281  0.749662  0.192272  1
  O  O266  1  0.500031  0.749865  0.103635  1
  O  O267  1  0.500019  0.750007  0.282505  1
  Si  Si268  1  0.785368  0.933983  0.427726  1
  Si  Si269  1  0.214707  0.933939  0.427673  1
  Si  Si270  1  0.685618  0.872967  0.062820  1
  Si  Si271  1  0.314587  0.872304  0.063167  1
  Si  Si272  1  0.787232  0.933940  0.182328  1
  Si  Si273  1  0.212970  0.933832  0.182327  1
  Si  Si274  1  0.691180  0.875623  0.304928  1
  Si  Si275  1  0.308999  0.875555  0.304920  1
  Si  Si276  1  0.500058  0.948451  0.307158  1
  Si  Si277  1  0.000050  0.969430  0.430498  1
  Si  Si278  1  0.499824  0.949928  0.053716  1
  Si  Si279  1  0.000129  0.972369  0.180452  1
  Si  Si280  1  0.611673  0.750299  0.115668  1
  Si  Si281  1  0.388382  0.749569  0.115646  1
  Si  Si282  1  0.612448  0.750091  0.269151  1
  Si  Si283  1  0.387594  0.749966  0.269129  1
  O  O284  1  0.250432  0.868610  0.000083  1
  O  O285  1  0.750188  0.999979  0.188539  1
  O  O286  1  0.750065  0.999996  0.413403  1
  O  O287  1  0.759729  0.892223  0.627629  1
  O  O288  1  0.240492  0.892288  0.627612  1
  O  O289  1  0.600007  0.935438  0.576067  1
  O  O290  1  0.400101  0.935470  0.575882  1
  O  O291  1  0.250115  0.919033  0.500123  1
  O  O292  1  0.750080  0.999960  0.586909  1
  Si  Si293  1  0.887633  0.749853  0.731039  1
  O  O294  1  0.844165  0.691180  0.913557  1
  O  O295  1  0.156597  0.691555  0.913212  1
  O  O296  1  0.844143  0.808742  0.913236  1
  O  O297  1  0.155784  0.809043  0.913390  1
  O  O298  1  0.907594  0.910212  0.951899  1
  O  O299  1  0.093173  0.910661  0.952318  1
  O  O300  1  0.757653  0.905312  0.881183  1
  O  O301  1  0.242572  0.905360  0.881169  1
  O  O302  1  0.598979  0.937574  0.823242  1
  O  O303  1  0.401172  0.937603  0.823226  1
  O  O304  1  0.750030  0.999919  0.811509  1
  O  O305  1  0.745737  0.898567  0.754653  1
  O  O306  1  0.254363  0.898660  0.754643  1
  O  O307  1  0.836495  0.692182  0.703477  1
  O  O308  1  0.163612  0.692251  0.703541  1
  O  O309  1  0.836598  0.807591  0.703581  1
  O  O310  1  0.163485  0.807671  0.703427  1
  O  O311  1  0.907401  0.909351  0.699633  1
  O  O312  1  0.092758  0.909419  0.699558  1
  Si  Si313  1  0.112465  0.749960  0.730977  1
  O  O314  1  0.000088  0.995234  0.749424  1
  O  O315  1  0.999983  0.980145  0.623283  1
  O  O316  1  0.000227  0.978582  0.874855  1
  O  O317  1  0.875332  0.749790  0.807906  1
  O  O318  1  0.124794  0.750154  0.807832  1
  O  O319  1  0.000107  0.749952  0.896542  1
  O  O320  1  0.000042  0.749876  0.717622  1
  Si  Si321  1  0.714713  0.933925  0.572713  1
  Si  Si322  1  0.285397  0.933976  0.572647  1
  Si  Si323  1  0.814673  0.872667  0.937104  1
  Si  Si324  1  0.185783  0.872860  0.937281  1
  Si  Si325  1  0.712855  0.933912  0.817839  1
  Si  Si326  1  0.287296  0.933982  0.817833  1
  Si  Si327  1  0.808979  0.875427  0.695365  1
  Si  Si328  1  0.191186  0.875508  0.695327  1
  Si  Si329  1  0.000041  0.948246  0.692190  1
  Si  Si330  1  0.500073  0.969319  0.569478  1
  Si  Si331  1  0.000151  0.950034  0.945667  1
  Si  Si332  1  0.500089  0.972649  0.818844  1
  Si  Si333  1  0.888453  0.749902  0.884530  1
  Si  Si334  1  0.111746  0.750221  0.884461  1
  O  O335  1  0.749855  0.919030  0.500144  1
  O  O336  1  0.496871  0.999782  0.999556  1
