# generated using pymatgen
data_SiO2
_symmetry_space_group_name_H-M   'P 1'
_cell_length_a   19.28895472
_cell_length_b   15.90377525
_cell_length_c   18.27783093
_cell_angle_alpha   90.00000000
_cell_angle_beta   90.00000000
_cell_angle_gamma   90.00000000
_symmetry_Int_Tables_number   1
_chemical_formula_structural   SiO2
_chemical_formula_sum   'Si96 O192'
_cell_volume   5607.03902705
_cell_formula_units_Z   96
loop_
 _symmetry_equiv_pos_site_id
 _symmetry_equiv_pos_as_xyz
  1  'x, y, z'
loop_
 _atom_site_type_symbol
 _atom_site_label
 _atom_site_symmetry_multiplicity
 _atom_site_fract_x
 _atom_site_fract_y
 _atom_site_fract_z
 _atom_site_occupancy
  Si  Si1  1  0.419896  0.163109  0.438834  1
  Si  Si2  1  0.420007  0.837029  0.561069  1
  Si  Si3  1  0.419835  0.336929  0.938788  1
  Si  Si4  1  0.420203  0.663075  0.061134  1
  Si  Si5  1  0.580258  0.837134  0.561134  1
  Si  Si6  1  0.580164  0.163306  0.438796  1
  Si  Si7  1  0.580431  0.662715  0.061198  1
  Si  Si8  1  0.580093  0.336519  0.938674  1
  Si  Si9  1  0.919995  0.663267  0.438756  1
  Si  Si10  1  0.919914  0.337169  0.561172  1
  Si  Si11  1  0.920207  0.836569  0.938793  1
  Si  Si12  1  0.919827  0.162648  0.061047  1
  Si  Si13  1  0.080160  0.336974  0.561215  1
  Si  Si14  1  0.080255  0.663164  0.438690  1
  Si  Si15  1  0.080083  0.163074  0.061162  1
  Si  Si16  1  0.080485  0.836943  0.938791  1
  Si  Si17  1  0.240697  0.069210  0.606206  1
  Si  Si18  1  0.240922  0.930719  0.393905  1
  Si  Si19  1  0.241035  0.430527  0.106196  1
  Si  Si20  1  0.240911  0.569296  0.893973  1
  Si  Si21  1  0.759370  0.931180  0.394084  1
  Si  Si22  1  0.759893  0.068877  0.605989  1
  Si  Si23  1  0.759146  0.568915  0.894121  1
  Si  Si24  1  0.759811  0.430960  0.105939  1
  Si  Si25  1  0.740677  0.569399  0.606155  1
  Si  Si26  1  0.741186  0.430655  0.393910  1
  Si  Si27  1  0.740447  0.930684  0.106200  1
  Si  Si28  1  0.741126  0.069160  0.893871  1
  Si  Si29  1  0.259394  0.431000  0.394132  1
  Si  Si30  1  0.259636  0.568937  0.605974  1
  Si  Si31  1  0.259728  0.068750  0.894114  1
  Si  Si32  1  0.259594  0.931078  0.106062  1
  Si  Si33  1  0.179903  0.201041  0.500220  1
  Si  Si34  1  0.180350  0.798530  0.499663  1
  Si  Si35  1  0.180016  0.298781  0.000187  1
  Si  Si36  1  0.180247  0.701192  0.000004  1
  Si  Si37  1  0.819897  0.798718  0.499580  1
  Si  Si38  1  0.820036  0.201318  0.500355  1
  Si  Si39  1  0.820072  0.701200  0.999671  1
  Si  Si40  1  0.819946  0.298511  0.000306  1
  Si  Si41  1  0.680068  0.701271  0.500112  1
  Si  Si42  1  0.680206  0.298763  0.499823  1
  Si  Si43  1  0.680231  0.798628  0.000211  1
  Si  Si44  1  0.680125  0.201056  0.999771  1
  Si  Si45  1  0.319727  0.298494  0.499686  1
  Si  Si46  1  0.320189  0.701091  0.500191  1
  Si  Si47  1  0.319839  0.201331  0.999653  1
  Si  Si48  1  0.320064  0.798660  0.000533  1
  Si  Si49  1  0.194863  0.108764  0.353619  1
  Si  Si50  1  0.195725  0.890681  0.646393  1
  Si  Si51  1  0.194939  0.391209  0.853644  1
  Si  Si52  1  0.195392  0.608738  0.146501  1
  Si  Si53  1  0.804430  0.890321  0.646549  1
  Si  Si54  1  0.804559  0.109504  0.353523  1
  Si  Si55  1  0.804555  0.609420  0.146526  1
  Si  Si56  1  0.804404  0.390576  0.853577  1
  Si  Si57  1  0.695121  0.608727  0.353647  1
  Si  Si58  1  0.695269  0.391086  0.646431  1
  Si  Si59  1  0.695252  0.890995  0.853631  1
  Si  Si60  1  0.695111  0.108985  0.146486  1
  Si  Si61  1  0.304174  0.390353  0.646527  1
  Si  Si62  1  0.305037  0.609101  0.353475  1
  Si  Si63  1  0.304224  0.109624  0.146550  1
  Si  Si64  1  0.304650  0.890317  0.853586  1
  Si  Si65  1  0.335966  0.178673  0.297785  1
  Si  Si66  1  0.336740  0.821030  0.702510  1
  Si  Si67  1  0.335951  0.321183  0.797719  1
  Si  Si68  1  0.336486  0.678619  0.202327  1
  Si  Si69  1  0.663332  0.821045  0.702726  1
  Si  Si70  1  0.663536  0.179144  0.297376  1
  Si  Si71  1  0.663479  0.678823  0.202757  1
  Si  Si72  1  0.663507  0.320833  0.797263  1
  Si  Si73  1  0.836117  0.678811  0.297677  1
  Si  Si74  1  0.836338  0.321363  0.702427  1
  Si  Si75  1  0.836274  0.821058  0.797704  1
  Si  Si76  1  0.836297  0.178620  0.202312  1
  Si  Si77  1  0.163183  0.320904  0.702834  1
  Si  Si78  1  0.163952  0.678799  0.297467  1
  Si  Si79  1  0.163144  0.178961  0.202769  1
  Si  Si80  1  0.163645  0.820829  0.797281  1
  Si  Si81  1  0.249774  0.330737  0.250302  1
  Si  Si82  1  0.250319  0.669045  0.749907  1
  Si  Si83  1  0.249782  0.169052  0.750296  1
  Si  Si84  1  0.250335  0.830721  0.249919  1
  Si  Si85  1  0.749826  0.669148  0.750246  1
  Si  Si86  1  0.750281  0.330817  0.249852  1
  Si  Si87  1  0.749811  0.830828  0.250255  1
  Si  Si88  1  0.750297  0.169122  0.749863  1
  Si  Si89  1  0.352971  0.000132  0.500134  1
  Si  Si90  1  0.353112  0.500011  0.000087  1
  Si  Si91  1  0.647170  0.000309  0.500168  1
  Si  Si92  1  0.647046  0.499496  0.000128  1
  Si  Si93  1  0.853058  0.500300  0.500159  1
  Si  Si94  1  0.852948  0.999465  0.000134  1
  Si  Si95  1  0.147079  0.500141  0.500138  1
  Si  Si96  1  0.147220  0.000029  0.000092  1
  O  O97  1  0.395940  0.172342  0.356260  1
  O  O98  1  0.396527  0.827388  0.643783  1
  O  O99  1  0.395912  0.327538  0.856214  1
  O  O100  1  0.396419  0.672362  0.143773  1
  O  O101  1  0.603652  0.827361  0.643869  1
  O  O102  1  0.603802  0.172794  0.356132  1
  O  O103  1  0.603825  0.672523  0.143911  1
  O  O104  1  0.603725  0.327086  0.855993  1
  O  O105  1  0.896064  0.672490  0.356175  1
  O  O106  1  0.896232  0.327670  0.643829  1
  O  O107  1  0.896236  0.827415  0.856209  1
  O  O108  1  0.896144  0.172219  0.143688  1
  O  O109  1  0.103526  0.327208  0.643958  1
  O  O110  1  0.104109  0.672514  0.356092  1
  O  O111  1  0.103477  0.172674  0.143908  1
  O  O112  1  0.103943  0.827207  0.856119  1
  O  O113  1  0.378947  0.234513  0.479957  1
  O  O114  1  0.378534  0.766165  0.519942  1
  O  O115  1  0.378715  0.265779  0.980033  1
  O  O116  1  0.379200  0.734538  0.020165  1
  O  O117  1  0.621680  0.766257  0.519904  1
  O  O118  1  0.621025  0.234841  0.479825  1
  O  O119  1  0.622056  0.733281  0.019847  1
  O  O120  1  0.621043  0.265064  0.979696  1
  O  O121  1  0.879207  0.734872  0.479795  1
  O  O122  1  0.878557  0.266215  0.519951  1
  O  O123  1  0.879612  0.764694  0.979711  1
  O  O124  1  0.878545  0.233670  0.019817  1
  O  O125  1  0.121436  0.265906  0.520068  1
  O  O126  1  0.121001  0.734733  0.479836  1
  O  O127  1  0.121200  0.234390  0.020143  1
  O  O128  1  0.121692  0.765919  0.980084  1
  O  O129  1  0.397005  0.073560  0.466404  1
  O  O130  1  0.396981  0.926677  0.533917  1
  O  O131  1  0.397080  0.426582  0.966250  1
  O  O132  1  0.397160  0.573541  0.033640  1
  O  O133  1  0.603167  0.926910  0.534061  1
  O  O134  1  0.603244  0.073830  0.466404  1
  O  O135  1  0.603096  0.572857  0.034184  1
  O  O136  1  0.603134  0.426006  0.966293  1
  O  O137  1  0.897014  0.573816  0.466476  1
  O  O138  1  0.897094  0.426913  0.533976  1
  O  O139  1  0.896966  0.925874  0.966643  1
  O  O140  1  0.896983  0.072901  0.033879  1
  O  O141  1  0.103158  0.426664  0.534011  1
  O  O142  1  0.103135  0.573626  0.466343  1
  O  O143  1  0.103222  0.073500  0.033838  1
  O  O144  1  0.103308  0.926650  0.966069  1
  O  O145  1  0.500022  0.174319  0.446316  1
  O  O146  1  0.500137  0.825745  0.553167  1
  O  O147  1  0.499950  0.325474  0.946267  1
  O  O148  1  0.500342  0.674295  0.053403  1
  O  O149  1  0.000131  0.674325  0.446105  1
  O  O150  1  0.000029  0.325731  0.553371  1
  O  O151  1  0.000389  0.825676  0.946161  1
  O  O152  1  0.999941  0.174075  0.053311  1
  O  O153  1  0.304591  0.959884  0.440950  1
  O  O154  1  0.304544  0.040530  0.559196  1
  O  O155  1  0.304569  0.540171  0.941028  1
  O  O156  1  0.304834  0.459611  0.059299  1
  O  O157  1  0.695892  0.040424  0.559095  1
  O  O158  1  0.695476  0.959928  0.440991  1
  O  O159  1  0.695848  0.459391  0.058985  1
  O  O160  1  0.695248  0.540129  0.940983  1
  O  O161  1  0.804863  0.459848  0.440914  1
  O  O162  1  0.804452  0.540495  0.559154  1
  O  O163  1  0.804833  0.039929  0.940821  1
  O  O164  1  0.804230  0.959547  0.059166  1
  O  O165  1  0.195624  0.540485  0.559105  1
  O  O166  1  0.195556  0.459938  0.441032  1
  O  O167  1  0.195577  0.959591  0.059207  1
  O  O168  1  0.195859  0.040195  0.941132  1
  O  O169  1  0.194068  0.129986  0.558539  1
  O  O170  1  0.194345  0.870239  0.441903  1
  O  O171  1  0.194539  0.369763  0.058424  1
  O  O172  1  0.194431  0.630164  0.941689  1
  O  O173  1  0.806148  0.870875  0.442108  1
  O  O174  1  0.806888  0.129165  0.558082  1
  O  O175  1  0.805715  0.629445  0.942066  1
  O  O176  1  0.806794  0.370631  0.058059  1
  O  O177  1  0.694063  0.630184  0.558462  1
  O  O178  1  0.694802  0.369838  0.441718  1
  O  O179  1  0.693624  0.870119  0.058431  1
  O  O180  1  0.694722  0.129938  0.941701  1
  O  O181  1  0.306151  0.370681  0.442182  1
  O  O182  1  0.306453  0.629553  0.558263  1
  O  O183  1  0.306620  0.129081  0.942060  1
  O  O184  1  0.306501  0.870858  0.058055  1
  O  O185  1  0.200394  0.987080  0.628387  1
  O  O186  1  0.200207  0.012346  0.371234  1
  O  O187  1  0.200455  0.512338  0.128656  1
  O  O188  1  0.200200  0.487614  0.871401  1
  O  O189  1  0.799681  0.013171  0.371639  1
  O  O190  1  0.799911  0.986673  0.628401  1
  O  O191  1  0.799521  0.486899  0.871815  1
  O  O192  1  0.799880  0.513088  0.128418  1
  O  O193  1  0.700221  0.487502  0.628624  1
  O  O194  1  0.700424  0.512337  0.371444  1
  O  O195  1  0.700055  0.012559  0.128796  1
  O  O196  1  0.700413  0.987408  0.871456  1
  O  O197  1  0.299875  0.512752  0.371403  1
  O  O198  1  0.299699  0.486680  0.628214  1
  O  O199  1  0.299907  0.986666  0.871675  1
  O  O200  1  0.299661  0.013282  0.128385  1
  O  O201  1  0.264397  0.114605  0.679327  1
  O  O202  1  0.264850  0.885081  0.320971  1
  O  O203  1  0.264644  0.385080  0.179322  1
  O  O204  1  0.264887  0.614690  0.820946  1
  O  O205  1  0.735513  0.885557  0.321121  1
  O  O206  1  0.736058  0.114434  0.678979  1
  O  O207  1  0.735372  0.614411  0.821074  1
  O  O208  1  0.735957  0.385463  0.178955  1
  O  O209  1  0.764484  0.614792  0.679236  1
  O  O210  1  0.765000  0.385216  0.320841  1
  O  O211  1  0.764322  0.885168  0.179205  1
  O  O212  1  0.764929  0.114675  0.820838  1
  O  O213  1  0.235433  0.385378  0.321208  1
  O  O214  1  0.235893  0.614314  0.679082  1
  O  O215  1  0.235687  0.114306  0.821186  1
  O  O216  1  0.235925  0.885456  0.179088  1
  O  O217  1  0.188678  0.269822  0.225943  1
  O  O218  1  0.189209  0.729965  0.774192  1
  O  O219  1  0.188695  0.230031  0.726038  1
  O  O220  1  0.189294  0.769696  0.274184  1
  O  O221  1  0.810796  0.730124  0.774751  1
  O  O222  1  0.811092  0.269614  0.225374  1
  O  O223  1  0.810756  0.769768  0.274658  1
  O  O224  1  0.811109  0.230360  0.725465  1
  O  O225  1  0.688812  0.769732  0.226014  1
  O  O226  1  0.689135  0.229989  0.774127  1
  O  O227  1  0.688803  0.730164  0.725905  1
  O  O228  1  0.689126  0.269980  0.274203  1
  O  O229  1  0.310655  0.230205  0.774692  1
  O  O230  1  0.311204  0.769584  0.225447  1
  O  O231  1  0.310653  0.269639  0.274789  1
  O  O232  1  0.311250  0.730091  0.725427  1
  O  O233  1  0.170089  0.160031  0.422484  1
  O  O234  1  0.171675  0.838456  0.577858  1
  O  O235  1  0.170260  0.339816  0.922467  1
  O  O236  1  0.170538  0.660205  0.077768  1
  O  O237  1  0.828406  0.838014  0.578035  1
  O  O238  1  0.828866  0.161685  0.422020  1
  O  O239  1  0.828778  0.661477  0.077959  1
  O  O240  1  0.828655  0.338227  0.921997  1
  O  O241  1  0.670303  0.660205  0.422385  1
  O  O242  1  0.670752  0.339525  0.577664  1
  O  O243  1  0.670652  0.839280  0.922313  1
  O  O244  1  0.670553  0.160389  0.077644  1
  O  O245  1  0.328186  0.337853  0.578129  1
  O  O246  1  0.329790  0.660646  0.422199  1
  O  O247  1  0.328345  0.161986  0.078107  1
  O  O248  1  0.328614  0.838040  0.922116  1
  O  O249  1  0.249991  0.249376  0.498208  1
  O  O250  1  0.249695  0.748610  0.499015  1
  O  O251  1  0.249718  0.249645  0.998121  1
  O  O252  1  0.250257  0.749688  0.001978  1
  O  O253  1  0.750321  0.749269  0.498221  1
  O  O254  1  0.749553  0.248869  0.501377  1
  O  O255  1  0.750954  0.751584  0.999392  1
  O  O256  1  0.749559  0.250762  0.001458  1
  O  O257  1  0.157210  0.130336  0.278522  1
  O  O258  1  0.157888  0.869312  0.721445  1
  O  O259  1  0.157254  0.369597  0.778565  1
  O  O260  1  0.157927  0.630158  0.221732  1
  O  O261  1  0.842157  0.869175  0.721706  1
  O  O262  1  0.842206  0.130445  0.278276  1
  O  O263  1  0.842137  0.630590  0.221745  1
  O  O264  1  0.842136  0.369626  0.778368  1
  O  O265  1  0.657530  0.630132  0.278477  1
  O  O266  1  0.657589  0.369459  0.721503  1
  O  O267  1  0.657514  0.869613  0.778523  1
  O  O268  1  0.657515  0.130598  0.221598  1
  O  O269  1  0.341849  0.369353  0.721747  1
  O  O270  1  0.342539  0.630291  0.278211  1
  O  O271  1  0.341872  0.130576  0.221787  1
  O  O272  1  0.342528  0.869178  0.778504  1
  O  O273  1  0.271765  0.138117  0.338432  1
  O  O274  1  0.272660  0.861815  0.661859  1
  O  O275  1  0.271815  0.361832  0.838399  1
  O  O276  1  0.272318  0.638017  0.161652  1
  O  O277  1  0.727463  0.861596  0.662009  1
  O  O278  1  0.727642  0.138506  0.338092  1
  O  O279  1  0.727621  0.638349  0.161952  1
  O  O280  1  0.727523  0.361542  0.838065  1
  O  O281  1  0.771995  0.638134  0.338379  1
  O  O282  1  0.772186  0.361923  0.661708  1
  O  O283  1  0.772153  0.861774  0.838333  1
  O  O284  1  0.772062  0.138109  0.161688  1
  O  O285  1  0.227236  0.361578  0.662065  1
  O  O286  1  0.228133  0.638370  0.338229  1
  O  O287  1  0.227262  0.138386  0.162028  1
  O  O288  1  0.227736  0.861449  0.838029  1
