# generated using pymatgen
data_SiO2
_symmetry_space_group_name_H-M   'P 1'
_cell_length_a   9.74992048
_cell_length_b   12.28001394
_cell_length_c   22.76605097
_cell_angle_alpha   90.00000000
_cell_angle_beta   90.00000000
_cell_angle_gamma   90.00000000
_symmetry_Int_Tables_number   1
_chemical_formula_structural   SiO2
_chemical_formula_sum   'Si48 O96'
_cell_volume   2725.76014485
_cell_formula_units_Z   48
loop_
 _symmetry_equiv_pos_site_id
 _symmetry_equiv_pos_as_xyz
  1  'x, y, z'
loop_
 _atom_site_type_symbol
 _atom_site_label
 _atom_site_symmetry_multiplicity
 _atom_site_fract_x
 _atom_site_fract_y
 _atom_site_fract_z
 _atom_site_occupancy
  O  O1  1  0.328944  0.749892  0.851418  1
  O  O2  1  0.171272  0.249892  0.351418  1
  O  O3  1  0.671272  0.249894  0.148670  1
  O  O4  1  0.828944  0.749895  0.648670  1
  O  O5  1  0.266140  0.894814  0.924474  1
  O  O6  1  0.234076  0.394814  0.424474  1
  O  O7  1  0.266140  0.604973  0.924475  1
  O  O8  1  0.234077  0.104973  0.424475  1
  O  O9  1  0.734076  0.104972  0.075614  1
  O  O10  1  0.766141  0.604972  0.575614  1
  O  O11  1  0.734076  0.394814  0.075613  1
  O  O12  1  0.766140  0.894814  0.575613  1
  O  O13  1  0.505539  0.895965  0.868022  1
  O  O14  1  0.994675  0.395965  0.368021  1
  O  O15  1  0.505540  0.603820  0.868023  1
  O  O16  1  0.994676  0.103821  0.368023  1
  O  O17  1  0.494676  0.103821  0.132067  1
  O  O18  1  0.005540  0.603821  0.632067  1
  O  O19  1  0.494676  0.395966  0.132065  1
  O  O20  1  0.005538  0.895966  0.632064  1
  O  O21  1  0.278874  0.942415  0.814884  1
  O  O22  1  0.221341  0.442414  0.314884  1
  O  O23  1  0.278875  0.557368  0.814886  1
  O  O24  1  0.221341  0.057369  0.314885  1
  O  O25  1  0.721342  0.057373  0.185204  1
  O  O26  1  0.778875  0.557372  0.685203  1
  O  O27  1  0.721341  0.442417  0.185203  1
  O  O28  1  0.778875  0.942419  0.685203  1
  O  O29  1  0.628220  0.749892  0.521404  1
  O  O30  1  0.871995  0.249891  0.021404  1
  O  O31  1  0.371996  0.249894  0.478684  1
  O  O32  1  0.128220  0.749894  0.978684  1
  O  O33  1  0.655302  0.937476  0.472423  1
  O  O34  1  0.844914  0.437476  0.972423  1
  O  O35  1  0.655304  0.562307  0.472425  1
  O  O36  1  0.844910  0.062307  0.972425  1
  O  O37  1  0.344913  0.062311  0.527664  1
  O  O38  1  0.155303  0.562310  0.027664  1
  O  O39  1  0.344910  0.437479  0.527663  1
  O  O40  1  0.155305  0.937478  0.027663  1
  O  O41  1  0.508440  0.916418  0.564245  1
  O  O42  1  0.991775  0.416418  0.064246  1
  O  O43  1  0.508440  0.583367  0.564246  1
  O  O44  1  0.991775  0.083367  0.064246  1
  O  O45  1  0.491776  0.083368  0.435842  1
  O  O46  1  0.008438  0.583367  0.935842  1
  O  O47  1  0.491776  0.416420  0.435842  1
  O  O48  1  0.008441  0.916420  0.935842  1
  O  O49  1  0.941037  0.428476  0.867121  1
  O  O50  1  0.559178  0.928477  0.367120  1
  O  O51  1  0.941033  0.071310  0.867123  1
  O  O52  1  0.559181  0.571311  0.367121  1
  O  O53  1  0.059177  0.571310  0.132967  1
  O  O54  1  0.441037  0.071309  0.632967  1
  O  O55  1  0.059181  0.928475  0.132966  1
  O  O56  1  0.441035  0.428474  0.632965  1
  O  O57  1  0.764865  0.573161  0.893206  1
  O  O58  1  0.735351  0.073161  0.393206  1
  O  O59  1  0.764866  0.926625  0.893206  1
  O  O60  1  0.735352  0.426625  0.393206  1
  O  O61  1  0.235350  0.426625  0.106881  1
  O  O62  1  0.264867  0.926627  0.606881  1
  O  O63  1  0.235351  0.073162  0.106881  1
  O  O64  1  0.264865  0.573162  0.606881  1
  O  O65  1  0.183619  0.749893  0.656039  1
  O  O66  1  0.316596  0.249894  0.156039  1
  O  O67  1  0.816597  0.249892  0.344049  1
  O  O68  1  0.683619  0.749890  0.844049  1
  O  O69  1  0.181634  0.570744  0.712519  1
  O  O70  1  0.318580  0.070745  0.212520  1
  O  O71  1  0.181626  0.929041  0.712518  1
  O  O72  1  0.318585  0.429044  0.212517  1
  O  O73  1  0.818569  0.429049  0.287570  1
  O  O74  1  0.681635  0.929042  0.787569  1
  O  O75  1  0.818577  0.070739  0.287573  1
  O  O76  1  0.681639  0.570738  0.787573  1
  O  O77  1  0.959072  0.249897  0.809953  1
  O  O78  1  0.541143  0.749893  0.309952  1
  O  O79  1  0.041144  0.749892  0.190135  1
  O  O80  1  0.459072  0.249894  0.690135  1
  O  O81  1  0.346758  0.418747  0.735824  1
  O  O82  1  0.153457  0.918748  0.235824  1
  O  O83  1  0.346759  0.081043  0.735826  1
  O  O84  1  0.153457  0.581039  0.235824  1
  O  O85  1  0.653459  0.581031  0.264269  1
  O  O86  1  0.846755  0.081038  0.764263  1
  O  O87  1  0.653457  0.918753  0.264268  1
  O  O88  1  0.846758  0.418752  0.764268  1
  O  O89  1  0.103959  0.416299  0.779937  1
  O  O90  1  0.396257  0.916299  0.279937  1
  O  O91  1  0.103964  0.083485  0.779938  1
  O  O92  1  0.396257  0.583487  0.279939  1
  O  O93  1  0.896258  0.583488  0.220150  1
  O  O94  1  0.603963  0.083486  0.720152  1
  O  O95  1  0.896257  0.916298  0.220148  1
  O  O96  1  0.603958  0.416299  0.720148  1
  Si  Si97  1  0.346329  0.874863  0.865236  1
  Si  Si98  1  0.153885  0.374863  0.365237  1
  Si  Si99  1  0.346331  0.624920  0.865238  1
  Si  Si100  1  0.153885  0.124922  0.365239  1
  Si  Si101  1  0.653884  0.124924  0.134850  1
  Si  Si102  1  0.846332  0.624924  0.634850  1
  Si  Si103  1  0.653884  0.374864  0.134849  1
  Si  Si104  1  0.846328  0.874866  0.634850  1
  Si  Si105  1  0.641767  0.875571  0.532424  1
  Si  Si106  1  0.858447  0.375572  0.032424  1
  Si  Si107  1  0.641769  0.624213  0.532425  1
  Si  Si108  1  0.858446  0.124212  0.032426  1
  Si  Si109  1  0.358450  0.124215  0.467663  1
  Si  Si110  1  0.141767  0.624215  0.967663  1
  Si  Si111  1  0.358448  0.375573  0.467662  1
  Si  Si112  1  0.141767  0.875572  0.967662  1
  Si  Si113  1  0.888861  0.505400  0.917195  1
  Si  Si114  1  0.611356  0.005400  0.417195  1
  Si  Si115  1  0.888859  0.994385  0.917196  1
  Si  Si116  1  0.611357  0.494386  0.417196  1
  Si  Si117  1  0.111355  0.494387  0.082892  1
  Si  Si118  1  0.388862  0.994385  0.582892  1
  Si  Si119  1  0.111357  0.005400  0.082892  1
  Si  Si120  1  0.388859  0.505400  0.582892  1
  Si  Si121  1  0.159082  0.875785  0.650800  1
  Si  Si122  1  0.341135  0.375785  0.150800  1
  Si  Si123  1  0.159082  0.624002  0.650801  1
  Si  Si124  1  0.341134  0.124002  0.150800  1
  Si  Si125  1  0.841134  0.124000  0.349287  1
  Si  Si126  1  0.659081  0.623998  0.849287  1
  Si  Si127  1  0.841133  0.375785  0.349286  1
  Si  Si128  1  0.659083  0.875783  0.849287  1
  Si  Si129  1  0.963801  0.123472  0.805201  1
  Si  Si130  1  0.536419  0.623472  0.305201  1
  Si  Si131  1  0.963797  0.376318  0.805199  1
  Si  Si132  1  0.536418  0.876315  0.305200  1
  Si  Si133  1  0.036416  0.876312  0.194886  1
  Si  Si134  1  0.463798  0.376314  0.694887  1
  Si  Si135  1  0.036416  0.623473  0.194887  1
  Si  Si136  1  0.463802  0.123471  0.694888  1
  Si  Si137  1  0.227761  0.489361  0.761450  1
  Si  Si138  1  0.272454  0.989361  0.261450  1
  Si  Si139  1  0.227760  0.010423  0.761450  1
  Si  Si140  1  0.272455  0.510425  0.261450  1
  Si  Si141  1  0.772455  0.510426  0.238637  1
  Si  Si142  1  0.727761  0.010424  0.738638  1
  Si  Si143  1  0.772458  0.989360  0.238637  1
  Si  Si144  1  0.727758  0.489360  0.738637  1
