# generated using pymatgen
data_SiO2
_symmetry_space_group_name_H-M   'P 1'
_cell_length_a   13.77465444
_cell_length_b   35.19864774
_cell_length_c   21.91018828
_cell_angle_alpha   90.00000000
_cell_angle_beta   90.00000000
_cell_angle_gamma   90.00000000
_symmetry_Int_Tables_number   1
_chemical_formula_structural   SiO2
_chemical_formula_sum   'Si200 O400'
_cell_volume   10623.137464
_cell_formula_units_Z   200
loop_
 _symmetry_equiv_pos_site_id
 _symmetry_equiv_pos_as_xyz
  1  'x, y, z'
loop_
 _atom_site_type_symbol
 _atom_site_label
 _atom_site_symmetry_multiplicity
 _atom_site_fract_x
 _atom_site_fract_y
 _atom_site_fract_z
 _atom_site_occupancy
  Si  Si1  1  0.191929  0.072817  0.372134  1
  Si  Si2  1  0.308391  0.072814  0.127915  1
  Si  Si3  1  0.808151  0.072818  0.372566  1
  Si  Si4  1  0.692125  0.072842  0.127478  1
  Si  Si5  1  0.213764  0.144579  0.182989  1
  Si  Si6  1  0.286553  0.144597  0.317133  1
  Si  Si7  1  0.786350  0.144605  0.182873  1
  Si  Si8  1  0.714002  0.144602  0.317130  1
  Si  Si9  1  0.186633  0.213704  0.377773  1
  Si  Si10  1  0.186523  0.286206  0.122215  1
  Si  Si11  1  0.313694  0.213494  0.121891  1
  Si  Si12  1  0.313953  0.286365  0.378148  1
  Si  Si13  1  0.813813  0.286375  0.121635  1
  Si  Si14  1  0.813899  0.213495  0.378352  1
  Si  Si15  1  0.686491  0.286157  0.378025  1
  Si  Si16  1  0.686591  0.213657  0.121954  1
  Si  Si17  1  0.112153  0.179824  0.499703  1
  O  O18  1  0.399757  0.000029  0.315597  1
  Si  Si19  1  0.111960  0.320127  0.000335  1
  Si  Si20  1  0.611675  0.179941  0.000022  1
  O  O21  1  0.600435  0.000097  0.315588  1
  O  O22  1  0.100435  0.000071  0.184373  1
  O  O23  1  0.497566  0.250324  0.249407  1
  O  O24  1  0.996790  0.250151  0.250202  1
  Si  Si25  1  0.785017  0.000138  0.182153  1
  Si  Si26  1  0.999881  0.072655  0.298747  1
  Si  Si27  1  0.500399  0.072679  0.201316  1
  Si  Si28  1  0.000015  0.146116  0.221050  1
  Si  Si29  1  0.500309  0.146126  0.279053  1
  Si  Si30  1  0.000025  0.218829  0.300128  1
  Si  Si31  1  0.999946  0.281234  0.199881  1
  Si  Si32  1  0.500176  0.218793  0.199816  1
  Si  Si33  1  0.500210  0.281197  0.300074  1
  Si  Si34  1  0.000062  0.000099  0.218925  1
  O  O35  1  0.251073  0.108936  0.353410  1
  O  O36  1  0.249325  0.108955  0.146640  1
  O  O37  1  0.749296  0.108918  0.353415  1
  O  O38  1  0.751218  0.108879  0.146638  1
  O  O39  1  0.162952  0.075254  0.441309  1
  O  O40  1  0.337336  0.075175  0.058728  1
  O  O41  1  0.837338  0.075443  0.441646  1
  O  O42  1  0.662895  0.075557  0.058424  1
  O  O43  1  0.246201  0.036237  0.350734  1
  O  O44  1  0.254154  0.036247  0.149417  1
  O  O45  1  0.753472  0.036084  0.352138  1
  O  O46  1  0.746693  0.036064  0.147805  1
  O  O47  1  0.093211  0.074844  0.337974  1
  O  O48  1  0.407149  0.074875  0.162016  1
  O  O49  1  0.906745  0.074498  0.338207  1
  O  O50  1  0.593603  0.074576  0.161919  1
  O  O51  1  0.257024  0.181971  0.156626  1
  O  O52  1  0.257383  0.317953  0.343505  1
  O  O53  1  0.243203  0.181929  0.343597  1
  O  O54  1  0.242885  0.318036  0.156372  1
  O  O55  1  0.742824  0.317991  0.343853  1
  O  O56  1  0.742882  0.181858  0.156234  1
  O  O57  1  0.757345  0.317942  0.156388  1
  O  O58  1  0.757434  0.181938  0.343567  1
  O  O59  1  0.250146  0.140050  0.250065  1
  O  O60  1  0.750099  0.140102  0.249985  1
  O  O61  1  0.099497  0.147383  0.185753  1
  O  O62  1  0.400814  0.147443  0.314328  1
  O  O63  1  0.900601  0.147572  0.185678  1
  O  O64  1  0.599724  0.147516  0.314435  1
  O  O65  1  0.250671  0.249921  0.384241  1
  O  O66  1  0.250738  0.250029  0.115932  1
  O  O67  1  0.750673  0.249880  0.115771  1
  O  O68  1  0.750736  0.249982  0.384324  1
  O  O69  1  0.155739  0.197691  0.440930  1
  O  O70  1  0.155677  0.302127  0.058978  1
  O  O71  1  0.342762  0.197341  0.058487  1
  O  O72  1  0.343520  0.302516  0.441456  1
  O  O73  1  0.842966  0.302469  0.058191  1
  O  O74  1  0.843168  0.197348  0.441730  1
  O  O75  1  0.655538  0.302070  0.441254  1
  O  O76  1  0.656010  0.197730  0.058660  1
  O  O77  1  0.093930  0.222554  0.339436  1
  O  O78  1  0.093821  0.277353  0.160564  1
  O  O79  1  0.407876  0.221764  0.158964  1
  O  O80  1  0.407843  0.277897  0.340848  1
  O  O81  1  0.907936  0.278058  0.158775  1
  O  O82  1  0.908034  0.221855  0.341263  1
  O  O83  1  0.593822  0.277282  0.339641  1
  O  O84  1  0.593700  0.222414  0.160143  1
  O  O85  1  0.499620  0.186169  0.000283  1
  O  O86  1  0.127337  0.135945  0.499790  1
  Si  Si87  1  0.500089  0.000069  0.281014  1
  Si  Si88  1  0.715124  0.000165  0.317774  1
  O  O89  1  0.500453  0.321280  0.269639  1
  O  O90  1  0.500445  0.178988  0.231019  1
  O  O91  1  0.899706  0.000064  0.184359  1
  O  O92  1  0.750065  0.001222  0.249961  1
  O  O93  1  0.999541  0.107392  0.255374  1
  O  O94  1  0.500608  0.107402  0.244725  1
  O  O95  1  0.000313  0.035443  0.261334  1
  O  O96  1  0.499827  0.035413  0.238603  1
  O  O97  1  0.000252  0.178941  0.269163  1
  O  O98  1  0.000220  0.321233  0.230567  1
  Si  Si99  1  0.611867  0.320080  0.499910  1
  O  O100  1  0.999932  0.313846  0.000162  1
  Si  Si101  1  0.692049  0.072825  0.872008  1
  Si  Si102  1  0.808183  0.072840  0.628144  1
  Si  Si103  1  0.308113  0.072821  0.872082  1
  Si  Si104  1  0.191925  0.072867  0.627934  1
  Si  Si105  1  0.713754  0.144706  0.683002  1
  Si  Si106  1  0.786352  0.144729  0.817228  1
  Si  Si107  1  0.286310  0.144689  0.682920  1
  Si  Si108  1  0.213861  0.144714  0.817171  1
  Si  Si109  1  0.686188  0.213749  0.878053  1
  Si  Si110  1  0.686432  0.286375  0.621912  1
  Si  Si111  1  0.813724  0.213702  0.622101  1
  Si  Si112  1  0.813908  0.286273  0.877877  1
  Si  Si113  1  0.313570  0.286401  0.621854  1
  Si  Si114  1  0.313763  0.213689  0.878143  1
  Si  Si115  1  0.186389  0.286355  0.878359  1
  Si  Si116  1  0.186547  0.213601  0.621631  1
  O  O117  1  0.000311  0.084558  0.500180  1
  Si  Si118  1  0.888140  0.179744  0.500303  1
  Si  Si119  1  0.387857  0.320325  0.500046  1
  Si  Si120  1  0.612787  0.092038  0.999742  1
  Si  Si121  1  0.887515  0.091854  0.500362  1
  Si  Si122  1  0.387204  0.091736  0.999953  1
  O  O123  1  0.001645  0.250706  0.748926  1
  O  O124  1  0.497942  0.249504  0.749150  1
  O  O125  1  0.000238  0.321454  0.769995  1
  Si  Si126  1  0.500052  0.072584  0.798572  1
  Si  Si127  1  0.000139  0.072817  0.701590  1
  Si  Si128  1  0.500015  0.146088  0.721066  1
  Si  Si129  1  0.000115  0.146283  0.779279  1
  Si  Si130  1  0.499973  0.218771  0.800046  1
  Si  Si131  1  0.500008  0.281185  0.699803  1
  Si  Si132  1  0.000351  0.218879  0.699814  1
  Si  Si133  1  0.000374  0.281261  0.800113  1
  O  O134  1  0.751192  0.108933  0.853265  1
  O  O135  1  0.748995  0.108965  0.646815  1
  O  O136  1  0.249275  0.109023  0.853397  1
  O  O137  1  0.251171  0.108936  0.646754  1
  O  O138  1  0.662906  0.075358  0.941139  1
  O  O139  1  0.837467  0.075199  0.559010  1
  O  O140  1  0.337131  0.075142  0.941266  1
  O  O141  1  0.163157  0.075373  0.558736  1
  O  O142  1  0.746221  0.036207  0.850671  1
  O  O143  1  0.754053  0.036232  0.649541  1
  O  O144  1  0.253688  0.036290  0.850613  1
  O  O145  1  0.246027  0.036251  0.649351  1
  O  O146  1  0.593377  0.074839  0.837798  1
  O  O147  1  0.906799  0.074945  0.662385  1
  O  O148  1  0.406860  0.074774  0.837937  1
  O  O149  1  0.093188  0.074942  0.662077  1
  O  O150  1  0.757097  0.181997  0.656394  1
  O  O151  1  0.757355  0.317960  0.843464  1
  O  O152  1  0.742740  0.181938  0.843952  1
  O  O153  1  0.742965  0.318104  0.656207  1
  O  O154  1  0.242675  0.318070  0.843853  1
  O  O155  1  0.242820  0.181905  0.656159  1
  O  O156  1  0.257178  0.318003  0.656548  1
  O  O157  1  0.257326  0.182064  0.843514  1
  O  O158  1  0.750139  0.140293  0.750098  1
  O  O159  1  0.249887  0.140216  0.750005  1
  O  O160  1  0.599509  0.147618  0.685790  1
  O  O161  1  0.900610  0.147677  0.814530  1
  O  O162  1  0.400549  0.147651  0.685757  1
  O  O163  1  0.099579  0.147617  0.814591  1
  O  O164  1  0.750173  0.249984  0.884371  1
  O  O165  1  0.750211  0.250067  0.615865  1
  O  O166  1  0.250219  0.249965  0.615925  1
  O  O167  1  0.250271  0.250067  0.884375  1
  O  O168  1  0.655275  0.197923  0.941336  1
  O  O169  1  0.656135  0.302273  0.558551  1
  O  O170  1  0.844012  0.197706  0.558830  1
  O  O171  1  0.844323  0.302419  0.941031  1
  O  O172  1  0.342982  0.302521  0.558490  1
  O  O173  1  0.343509  0.197519  0.941405  1
  O  O174  1  0.156306  0.302314  0.941722  1
  O  O175  1  0.156948  0.197697  0.558142  1
  O  O176  1  0.593526  0.222600  0.839667  1
  O  O177  1  0.593402  0.277738  0.660001  1
  O  O178  1  0.907010  0.222213  0.659968  1
  O  O179  1  0.906958  0.277430  0.839864  1
  O  O180  1  0.407625  0.278101  0.659039  1
  O  O181  1  0.407507  0.222245  0.840718  1
  O  O182  1  0.093008  0.277656  0.840626  1
  O  O183  1  0.092783  0.221966  0.659087  1
  O  O184  1  0.000132  0.186193  0.500029  1
  Si  Si185  1  0.000017  0.000044  0.780943  1
  O  O186  1  0.499820  0.313817  0.500179  1
  O  O187  1  0.372766  0.135747  0.999862  1
  O  O188  1  0.873203  0.135867  0.500614  1
  O  O189  1  0.899709  0.000032  0.815542  1
  O  O190  1  0.399701  0.000031  0.684336  1
  O  O191  1  0.499932  0.107159  0.754836  1
  O  O192  1  0.000189  0.107519  0.745052  1
  O  O193  1  0.500066  0.035241  0.761474  1
  O  O194  1  0.000176  0.035463  0.738675  1
  O  O195  1  0.500086  0.178641  0.769745  1
  O  O196  1  0.500146  0.320932  0.731188  1
  O  O197  1  0.000246  0.179179  0.731318  1
  O  O198  1  0.500057  0.084570  0.999848  1
  Si  Si199  1  0.887961  0.320285  0.999779  1
  Si  Si200  1  0.113088  0.091913  0.500016  1
  O  O201  1  0.626995  0.136072  0.999686  1
  Si  Si202  1  0.387672  0.179630  0.999984  1
  O  O203  1  0.600456  0.000005  0.684320  1
  Si  Si204  1  0.692066  0.572774  0.372395  1
  Si  Si205  1  0.192033  0.427110  0.127990  1
  Si  Si206  1  0.808141  0.572753  0.127765  1
  Si  Si207  1  0.308230  0.427123  0.372140  1
  Si  Si208  1  0.808254  0.427096  0.127938  1
  Si  Si209  1  0.308156  0.572741  0.372365  1
  Si  Si210  1  0.692061  0.427094  0.372140  1
  Si  Si211  1  0.191978  0.572770  0.127648  1
  Si  Si212  1  0.713726  0.644540  0.183010  1
  Si  Si213  1  0.213842  0.355289  0.317140  1
  Si  Si214  1  0.786379  0.644574  0.317191  1
  Si  Si215  1  0.286465  0.355288  0.182946  1
  Si  Si216  1  0.786354  0.355229  0.317192  1
  Si  Si217  1  0.286361  0.644536  0.182899  1
  Si  Si218  1  0.713927  0.355246  0.182939  1
  Si  Si219  1  0.213766  0.644528  0.317095  1
  Si  Si220  1  0.112904  0.408032  0.000168  1
  O  O221  1  0.500068  0.464725  0.261613  1
  O  O222  1  0.000188  0.535415  0.238839  1
  O  O223  1  0.000027  0.464742  0.238413  1
  Si  Si224  1  0.887323  0.592089  0.000070  1
  O  O225  1  0.500178  0.535353  0.261269  1
  Si  Si226  1  0.715156  0.500002  0.182267  1
  Si  Si227  1  0.215103  0.500020  0.317822  1
  Si  Si228  1  0.785069  0.500027  0.317891  1
  Si  Si229  1  0.285050  0.500049  0.182207  1
  Si  Si230  1  0.500122  0.572521  0.298764  1
  Si  Si231  1  0.000106  0.427318  0.201504  1
  Si  Si232  1  0.000104  0.572590  0.201353  1
  Si  Si233  1  0.500142  0.427342  0.298619  1
  Si  Si234  1  0.500020  0.646012  0.221132  1
  Si  Si235  1  0.000089  0.353850  0.279109  1
  Si  Si236  1  0.000063  0.646078  0.279013  1
  Si  Si237  1  0.500213  0.353868  0.221032  1
  Si  Si238  1  0.500096  0.499970  0.218969  1
  Si  Si239  1  0.000077  0.499992  0.281053  1
  O  O240  1  0.751189  0.608797  0.353242  1
  O  O241  1  0.251302  0.391017  0.146706  1
  O  O242  1  0.749114  0.608816  0.146878  1
  O  O243  1  0.249142  0.390975  0.353450  1
  O  O244  1  0.749215  0.390961  0.146713  1
  O  O245  1  0.249234  0.608834  0.353273  1
  O  O246  1  0.751167  0.390981  0.353347  1
  O  O247  1  0.251148  0.608781  0.146797  1
  O  O248  1  0.662943  0.575627  0.441453  1
  O  O249  1  0.162887  0.424679  0.058845  1
  O  O250  1  0.837358  0.575460  0.058698  1
  O  O251  1  0.337360  0.424786  0.441303  1
  O  O252  1  0.837230  0.424698  0.058758  1
  O  O253  1  0.337359  0.575400  0.441440  1
  O  O254  1  0.663058  0.424623  0.441308  1
  O  O255  1  0.162893  0.575599  0.058583  1
  O  O256  1  0.746724  0.535999  0.352127  1
  O  O257  1  0.246195  0.463720  0.149363  1
  O  O258  1  0.753464  0.535999  0.148096  1
  O  O259  1  0.253997  0.463701  0.350685  1
  O  O260  1  0.754051  0.463681  0.149404  1
  O  O261  1  0.253358  0.536019  0.352012  1
  O  O262  1  0.746293  0.463693  0.350775  1
  O  O263  1  0.246634  0.536005  0.147967  1
  O  O264  1  0.593441  0.574502  0.338054  1
  O  O265  1  0.093420  0.425033  0.162266  1
  O  O266  1  0.906770  0.574483  0.162082  1
  O  O267  1  0.406895  0.425078  0.337921  1
  O  O268  1  0.906978  0.425070  0.162090  1
  O  O269  1  0.406808  0.574432  0.338058  1
  O  O270  1  0.593366  0.425101  0.337948  1
  O  O271  1  0.093365  0.574535  0.162001  1
  O  O272  1  0.750038  0.640150  0.250106  1
  O  O273  1  0.250090  0.359833  0.250029  1
  O  O274  1  0.750136  0.359712  0.250068  1
  O  O275  1  0.249966  0.640100  0.249977  1
  O  O276  1  0.599471  0.647402  0.185806  1
  O  O277  1  0.099577  0.352354  0.314404  1
  O  O278  1  0.900630  0.647488  0.314354  1
  O  O279  1  0.400706  0.352309  0.185768  1
  O  O280  1  0.900614  0.352280  0.314415  1
  O  O281  1  0.400608  0.647426  0.185764  1
  O  O282  1  0.599658  0.352348  0.185686  1
  O  O283  1  0.099498  0.647372  0.314362  1
  O  O284  1  0.500188  0.392791  0.254826  1
  O  O285  1  0.873110  0.636107  0.000287  1
  O  O286  1  0.999989  0.607392  0.244589  1
  O  O287  1  0.600460  0.499871  0.184410  1
  O  O288  1  0.100417  0.499871  0.315629  1
  O  O289  1  0.899749  0.499921  0.315640  1
  O  O290  1  0.399739  0.499921  0.184403  1
  O  O291  1  0.750012  0.500985  0.250100  1
  O  O292  1  0.250086  0.501018  0.250017  1
  O  O293  1  0.500000  0.607289  0.255455  1
  O  O294  1  0.999965  0.392772  0.245312  1
  Si  Si295  1  0.887301  0.408179  0.000017  1
  O  O296  1  0.127231  0.364002  0.000386  1
  O  O297  1  0.627215  0.363953  0.499802  1
  O  O298  1  0.000132  0.415411  0.000084  1
  Si  Si299  1  0.613011  0.407991  0.499977  1
  O  O300  1  0.000101  0.584788  0.000002  1
  Si  Si301  1  0.192153  0.572752  0.872273  1
  Si  Si302  1  0.691997  0.427092  0.627854  1
  Si  Si303  1  0.308239  0.572774  0.627845  1
  Si  Si304  1  0.808171  0.427171  0.872167  1
  Si  Si305  1  0.308288  0.427109  0.627917  1
  Si  Si306  1  0.808193  0.572775  0.872331  1
  Si  Si307  1  0.192020  0.427145  0.872329  1
  Si  Si308  1  0.692081  0.572829  0.627750  1
  Si  Si309  1  0.213734  0.644546  0.683012  1
  Si  Si310  1  0.713859  0.355315  0.817157  1
  Si  Si311  1  0.286538  0.644565  0.817134  1
  Si  Si312  1  0.786466  0.355327  0.682952  1
  Si  Si313  1  0.286335  0.355316  0.817279  1
  Si  Si314  1  0.786390  0.644649  0.682926  1
  Si  Si315  1  0.213837  0.355329  0.683047  1
  Si  Si316  1  0.714009  0.644647  0.817179  1
  O  O317  1  0.000051  0.464787  0.761579  1
  Si  Si318  1  0.387416  0.408217  0.500016  1
  Si  Si319  1  0.215197  0.499991  0.682297  1
  Si  Si320  1  0.715081  0.500055  0.817799  1
  Si  Si321  1  0.285169  0.499980  0.817904  1
  Si  Si322  1  0.784966  0.500028  0.682166  1
  Si  Si323  1  0.000129  0.572478  0.798696  1
  Si  Si324  1  0.500174  0.427160  0.701446  1
  Si  Si325  1  0.500200  0.572589  0.701417  1
  Si  Si326  1  0.000151  0.427464  0.798724  1
  Si  Si327  1  0.000039  0.646025  0.721213  1
  Si  Si328  1  0.500075  0.353764  0.779279  1
  Si  Si329  1  0.500306  0.646061  0.779089  1
  Si  Si330  1  0.000145  0.353960  0.721220  1
  Si  Si331  1  0.000064  0.499968  0.718801  1
  Si  Si332  1  0.500112  0.499892  0.780876  1
  O  O333  1  0.251151  0.608857  0.853317  1
  O  O334  1  0.751431  0.391071  0.646706  1
  O  O335  1  0.249005  0.608830  0.646783  1
  O  O336  1  0.749275  0.390989  0.853433  1
  O  O337  1  0.249098  0.391005  0.646696  1
  O  O338  1  0.749400  0.608875  0.853163  1
  O  O339  1  0.251064  0.391039  0.853458  1
  O  O340  1  0.751189  0.608854  0.646919  1
  O  O341  1  0.162785  0.575422  0.941318  1
  O  O342  1  0.663077  0.424552  0.558686  1
  O  O343  1  0.337457  0.575385  0.558765  1
  O  O344  1  0.837301  0.424814  0.941331  1
  O  O345  1  0.337364  0.424758  0.558747  1
  O  O346  1  0.837246  0.575551  0.941415  1
  O  O347  1  0.163007  0.424585  0.941474  1
  O  O348  1  0.662968  0.575636  0.558683  1
  O  O349  1  0.247085  0.536047  0.851985  1
  O  O350  1  0.745871  0.463763  0.649250  1
  O  O351  1  0.253767  0.536019  0.648359  1
  O  O352  1  0.753812  0.463729  0.850734  1
  O  O353  1  0.254201  0.463715  0.649377  1
  O  O354  1  0.753305  0.536059  0.852013  1
  O  O355  1  0.246412  0.463742  0.851093  1
  O  O356  1  0.746648  0.536042  0.648047  1
  O  O357  1  0.093592  0.574440  0.837854  1
  O  O358  1  0.593334  0.424921  0.662059  1
  O  O359  1  0.406843  0.574700  0.662178  1
  O  O360  1  0.906874  0.425214  0.837991  1
  O  O361  1  0.406954  0.425011  0.662116  1
  O  O362  1  0.906918  0.574365  0.838096  1
  O  O363  1  0.093358  0.425259  0.838079  1
  O  O364  1  0.593440  0.574570  0.662059  1
  O  O365  1  0.250221  0.640039  0.750057  1
  O  O366  1  0.749905  0.359837  0.750001  1
  O  O367  1  0.250224  0.359840  0.750135  1
  O  O368  1  0.750048  0.640305  0.750020  1
  O  O369  1  0.099489  0.647435  0.685885  1
  O  O370  1  0.599578  0.352401  0.814553  1
  O  O371  1  0.400795  0.647465  0.814350  1
  O  O372  1  0.900691  0.352364  0.685902  1
  O  O373  1  0.400604  0.352360  0.814590  1
  O  O374  1  0.900641  0.647516  0.685825  1
  O  O375  1  0.099590  0.352415  0.685879  1
  O  O376  1  0.599722  0.647504  0.814475  1
  O  O377  1  0.626993  0.636272  0.500145  1
  O  O378  1  0.499980  0.535282  0.738582  1
  O  O379  1  0.500284  0.464565  0.738409  1
  O  O380  1  0.372911  0.635976  0.500066  1
  O  O381  1  0.872889  0.364162  0.999801  1
  O  O382  1  0.500197  0.584779  0.500064  1
  O  O383  1  0.000074  0.535365  0.761069  1
  O  O384  1  0.500258  0.415423  0.500012  1
  O  O385  1  0.000178  0.392901  0.754958  1
  O  O386  1  0.100462  0.499865  0.684246  1
  O  O387  1  0.600408  0.499912  0.815495  1
  O  O388  1  0.399802  0.499819  0.815447  1
  O  O389  1  0.899673  0.499833  0.684260  1
  O  O390  1  0.249475  0.500807  0.750247  1
  O  O391  1  0.750241  0.500998  0.750026  1
  O  O392  1  0.999889  0.607265  0.755431  1
  O  O393  1  0.500042  0.392550  0.745107  1
  O  O394  1  0.500442  0.607288  0.744886  1
  O  O395  1  0.127218  0.636142  0.999513  1
  Si  Si396  1  0.112867  0.592124  0.999909  1
  Si  Si397  1  0.612914  0.592237  0.500069  1
  Si  Si398  1  0.387375  0.591974  0.500089  1
  O  O399  1  0.372973  0.364207  0.500005  1
  Si  Si400  1  0.691924  0.927159  0.128072  1
  Si  Si401  1  0.808207  0.927189  0.371845  1
  Si  Si402  1  0.308061  0.927196  0.127732  1
  Si  Si403  1  0.192118  0.927181  0.372395  1
  Si  Si404  1  0.713720  0.855297  0.317047  1
  Si  Si405  1  0.786416  0.855292  0.182869  1
  Si  Si406  1  0.286266  0.855347  0.317203  1
  Si  Si407  1  0.213848  0.855369  0.182963  1
  Si  Si408  1  0.686196  0.713625  0.377923  1
  Si  Si409  1  0.686271  0.786251  0.122082  1
  Si  Si410  1  0.813700  0.713652  0.122397  1
  Si  Si411  1  0.813806  0.786168  0.377556  1
  Si  Si412  1  0.313491  0.786343  0.121928  1
  Si  Si413  1  0.313395  0.713571  0.378072  1
  Si  Si414  1  0.186423  0.786385  0.378368  1
  Si  Si415  1  0.186660  0.713481  0.121616  1
  Si  Si416  1  0.285079  0.999918  0.317864  1
  Si  Si417  1  0.611777  0.819910  0.000024  1
  Si  Si418  1  0.887087  0.907958  0.499634  1
  Si  Si419  1  0.387570  0.908004  0.000071  1
  O  O420  1  0.003619  0.750317  0.249426  1
  Si  Si421  1  0.499890  0.927402  0.201467  1
  Si  Si422  1  0.000349  0.927481  0.298573  1
  Si  Si423  1  0.499942  0.853899  0.279037  1
  Si  Si424  1  0.000144  0.853967  0.221053  1
  Si  Si425  1  0.499776  0.718762  0.300090  1
  Si  Si426  1  0.499840  0.781225  0.199930  1
  Si  Si427  1  0.000515  0.718779  0.199858  1
  Si  Si428  1  0.000477  0.781251  0.299987  1
  O  O429  1  0.497088  0.750029  0.250068  1
  O  O430  1  0.751140  0.891081  0.146866  1
  O  O431  1  0.749212  0.891038  0.353105  1
  O  O432  1  0.249045  0.891109  0.146773  1
  O  O433  1  0.251219  0.891135  0.353301  1
  O  O434  1  0.663045  0.924538  0.058909  1
  O  O435  1  0.837188  0.924725  0.441018  1
  O  O436  1  0.337458  0.924567  0.058692  1
  O  O437  1  0.162822  0.924391  0.441426  1
  O  O438  1  0.746083  0.963785  0.149394  1
  O  O439  1  0.753928  0.963777  0.350485  1
  O  O440  1  0.253419  0.963951  0.148067  1
  O  O441  1  0.246765  0.963957  0.352134  1
  O  O442  1  0.593155  0.925127  0.162180  1
  O  O443  1  0.907016  0.925216  0.337786  1
  O  O444  1  0.406593  0.925450  0.162163  1
  O  O445  1  0.093607  0.925463  0.337923  1
  O  O446  1  0.757038  0.681853  0.156453  1
  O  O447  1  0.757065  0.817984  0.343586  1
  O  O448  1  0.742818  0.681792  0.343920  1
  O  O449  1  0.742952  0.818080  0.156053  1
  O  O450  1  0.242575  0.818135  0.343873  1
  O  O451  1  0.242886  0.681766  0.156148  1
  O  O452  1  0.257345  0.818073  0.156471  1
  O  O453  1  0.257084  0.681871  0.343550  1
  O  O454  1  0.749963  0.859680  0.249936  1
  O  O455  1  0.250035  0.859827  0.250089  1
  O  O456  1  0.599449  0.852464  0.314306  1
  O  O457  1  0.900667  0.852427  0.185758  1
  O  O458  1  0.400517  0.852356  0.314401  1
  O  O459  1  0.099592  0.852419  0.185711  1
  O  O460  1  0.750014  0.749906  0.384059  1
  O  O461  1  0.750029  0.749952  0.116019  1
  O  O462  1  0.249992  0.749944  0.116228  1
  O  O463  1  0.250031  0.750001  0.383905  1
  O  O464  1  0.655485  0.697889  0.441299  1
  O  O465  1  0.655591  0.801959  0.058677  1
  O  O466  1  0.844398  0.697752  0.059143  1
  O  O467  1  0.844839  0.802070  0.440742  1
  O  O468  1  0.342941  0.802278  0.058451  1
  O  O469  1  0.342892  0.697593  0.441506  1
  O  O470  1  0.156910  0.802182  0.441938  1
  O  O471  1  0.157550  0.697716  0.057947  1
  O  O472  1  0.593448  0.722402  0.339608  1
  O  O473  1  0.593530  0.777533  0.160439  1
  O  O474  1  0.906562  0.722382  0.160608  1
  O  O475  1  0.906455  0.777343  0.339146  1
  O  O476  1  0.407606  0.777996  0.159040  1
  O  O477  1  0.407490  0.721919  0.340941  1
  O  O478  1  0.092451  0.777984  0.341117  1
  O  O479  1  0.092433  0.721711  0.158661  1
  O  O480  1  0.000199  0.686408  0.000111  1
  Si  Si481  1  0.215134  0.999941  0.182253  1
  O  O482  1  0.500032  0.678837  0.269248  1
  O  O483  1  0.999887  0.964798  0.261428  1
  O  O484  1  0.000177  0.821331  0.269564  1
  O  O485  1  0.000197  0.678977  0.231057  1
  O  O486  1  0.500024  0.821187  0.230692  1
  O  O487  1  0.249961  0.998926  0.250088  1
  O  O488  1  0.499647  0.892740  0.245020  1
  O  O489  1  0.000416  0.892851  0.254949  1
  O  O490  1  0.500406  0.964723  0.238606  1
  Si  Si491  1  0.888199  0.679978  0.000377  1
  Si  Si492  1  0.888050  0.820062  0.499507  1
  Si  Si493  1  0.387758  0.820120  0.000019  1
  O  O494  1  0.500381  0.915228  0.000163  1
  Si  Si495  1  0.613123  0.907820  0.000273  1
  O  O496  1  0.999883  0.915225  0.499825  1
  O  O497  1  0.627217  0.863778  0.000311  1
  O  O498  1  0.872879  0.863934  0.499200  1
  O  O499  1  0.373044  0.864006  0.000136  1
  Si  Si500  1  0.191992  0.927206  0.627690  1
  Si  Si501  1  0.308148  0.927228  0.872380  1
  Si  Si502  1  0.808234  0.927168  0.627503  1
  Si  Si503  1  0.692023  0.927172  0.872493  1
  Si  Si504  1  0.213675  0.855479  0.817086  1
  Si  Si505  1  0.286542  0.855484  0.682973  1
  Si  Si506  1  0.786273  0.855384  0.817145  1
  Si  Si507  1  0.713891  0.855412  0.682899  1
  Si  Si508  1  0.186572  0.713781  0.877490  1
  Si  Si509  1  0.186700  0.786303  0.622455  1
  Si  Si510  1  0.313708  0.713538  0.622082  1
  Si  Si511  1  0.313739  0.786483  0.877948  1
  Si  Si512  1  0.813710  0.786526  0.621561  1
  Si  Si513  1  0.813842  0.713600  0.878370  1
  Si  Si514  1  0.686524  0.786282  0.877972  1
  Si  Si515  1  0.686669  0.713755  0.622065  1
  Si  Si516  1  0.611647  0.680140  0.500096  1
  Si  Si517  1  0.112068  0.819963  0.500431  1
  Si  Si518  1  0.785040  0.999862  0.817839  1
  Si  Si519  1  0.387625  0.679863  0.500042  1
  Si  Si520  1  0.215004  0.999920  0.817796  1
  Si  Si521  1  0.715161  0.999852  0.682215  1
  O  O522  1  0.500497  0.821235  0.769411  1
  O  O523  1  0.500519  0.678876  0.730956  1
  Si  Si524  1  0.285004  0.999941  0.682196  1
  Si  Si525  1  0.000013  0.927437  0.701270  1
  Si  Si526  1  0.500139  0.927482  0.798801  1
  Si  Si527  1  0.999954  0.853973  0.778976  1
  Si  Si528  1  0.500256  0.853998  0.721167  1
  Si  Si529  1  0.999827  0.718812  0.800007  1
  Si  Si530  1  0.999821  0.781270  0.699852  1
  Si  Si531  1  0.500256  0.718748  0.699948  1
  Si  Si532  1  0.500200  0.781240  0.800057  1
  Si  Si533  1  0.500082  0.999975  0.718879  1
  O  O534  1  0.497475  0.750155  0.749739  1
  O  O535  1  0.251277  0.891177  0.646694  1
  O  O536  1  0.249072  0.891149  0.853374  1
  O  O537  1  0.749214  0.891143  0.646773  1
  O  O538  1  0.750931  0.891122  0.853229  1
  O  O539  1  0.162514  0.924522  0.558669  1
  O  O540  1  0.337601  0.924575  0.941408  1
  O  O541  1  0.837064  0.924388  0.558383  1
  O  O542  1  0.663136  0.924365  0.941601  1
  O  O543  1  0.246600  0.963976  0.647997  1
  O  O544  1  0.253397  0.963969  0.852059  1
  O  O545  1  0.753607  0.963926  0.647903  1
  O  O546  1  0.746824  0.963903  0.852166  1
  O  O547  1  0.093530  0.925367  0.662189  1
  O  O548  1  0.406669  0.925472  0.837936  1
  O  O549  1  0.906969  0.925440  0.661719  1
  O  O550  1  0.593289  0.925556  0.838260  1
  O  O551  1  0.257149  0.681887  0.656577  1
  O  O552  1  0.257144  0.818120  0.843430  1
  O  O553  1  0.243017  0.681882  0.843538  1
  O  O554  1  0.243111  0.818184  0.656463  1
  O  O555  1  0.742847  0.818136  0.843835  1
  O  O556  1  0.743041  0.681860  0.656059  1
  O  O557  1  0.757235  0.818134  0.656210  1
  O  O558  1  0.757444  0.681915  0.843846  1
  O  O559  1  0.250015  0.860018  0.750010  1
  O  O560  1  0.750132  0.859798  0.750014  1
  O  O561  1  0.099412  0.852613  0.814297  1
  O  O562  1  0.400775  0.852581  0.685881  1
  O  O563  1  0.900544  0.852512  0.814358  1
  O  O564  1  0.599624  0.852562  0.685734  1
  O  O565  1  0.250683  0.749975  0.883840  1
  O  O566  1  0.250723  0.750071  0.616334  1
  O  O567  1  0.750733  0.749979  0.615998  1
  O  O568  1  0.750622  0.750072  0.884131  1
  O  O569  1  0.155533  0.697923  0.940712  1
  O  O570  1  0.155905  0.802128  0.559157  1
  O  O571  1  0.342864  0.697579  0.558577  1
  O  O572  1  0.343161  0.802490  0.941372  1
  O  O573  1  0.842646  0.802457  0.557967  1
  O  O574  1  0.843246  0.697726  0.941905  1
  O  O575  1  0.655776  0.802126  0.941286  1
  O  O576  1  0.655834  0.698046  0.558682  1
  O  O577  1  0.093904  0.722679  0.839134  1
  O  O578  1  0.093852  0.777550  0.660683  1
  O  O579  1  0.407936  0.721769  0.659124  1
  O  O580  1  0.407779  0.778101  0.840782  1
  O  O581  1  0.907991  0.778326  0.658577  1
  O  O582  1  0.907884  0.721961  0.841175  1
  O  O583  1  0.593760  0.777442  0.839677  1
  O  O584  1  0.593862  0.722455  0.660369  1
  O  O585  1  0.000067  0.821126  0.730907  1
  O  O586  1  0.000093  0.678779  0.769478  1
  O  O587  1  0.500125  0.964645  0.761296  1
  O  O588  1  0.999904  0.964729  0.738475  1
  O  O589  1  0.500388  0.892746  0.755424  1
  O  O590  1  0.999710  0.892725  0.744714  1
  O  O591  1  0.996465  0.749836  0.749595  1
  O  O592  1  0.749891  0.998808  0.750070  1
  O  O593  1  0.250126  0.998947  0.750020  1
  Si  Si594  1  0.112215  0.680024  0.999529  1
  O  O595  1  0.499589  0.686415  0.500120  1
  O  O596  1  0.000040  0.813620  0.500199  1
  O  O597  1  0.127045  0.863845  0.500322  1
  Si  Si598  1  0.112637  0.907859  0.500040  1
  O  O599  1  0.100328  0.999987  0.815542  1
  O  O600  1  0.499731  0.813624  0.999993  1
