# generated using pymatgen
data_SiO2
_symmetry_space_group_name_H-M   'P 1'
_cell_length_a   17.29992123
_cell_length_b   17.30415519
_cell_length_c   28.27012823
_cell_angle_alpha   90.00000000
_cell_angle_beta   90.00000000
_cell_angle_gamma   120.00000000
_symmetry_Int_Tables_number   1
_chemical_formula_structural   SiO2
_chemical_formula_sum   'Si96 O192'
_cell_volume   7329.13864142
_cell_formula_units_Z   96
loop_
 _symmetry_equiv_pos_site_id
 _symmetry_equiv_pos_as_xyz
  1  'x, y, z'
loop_
 _atom_site_type_symbol
 _atom_site_label
 _atom_site_symmetry_multiplicity
 _atom_site_fract_x
 _atom_site_fract_y
 _atom_site_fract_z
 _atom_site_occupancy
  O  O1  1  0.049193  0.524828  0.096715  1
  O  O2  1  0.473886  0.525480  0.096652  1
  O  O3  1  0.473178  0.949423  0.096618  1
  O  O4  1  0.077325  0.434380  0.158139  1
  O  O5  1  0.354786  0.921418  0.158114  1
  O  O6  1  0.355503  0.434963  0.158099  1
  O  O7  1  0.077241  0.643361  0.158130  1
  O  O8  1  0.430531  0.067751  0.101715  1
  O  O9  1  0.431048  0.364383  0.101666  1
  O  O10  1  0.083478  0.403879  0.067792  1
  O  O11  1  0.317822  0.915271  0.067780  1
  O  O12  1  0.318537  0.404474  0.067729  1
  O  O13  1  0.083511  0.680188  0.067788  1
  Si  Si14  1  0.153802  0.666114  0.304175  1
  O  O15  1  0.446782  0.320046  0.019484  1
  O  O16  1  0.446143  0.127705  0.019503  1
  O  O17  1  0.170102  0.342283  0.019130  1
  O  O18  1  0.169584  0.828626  0.019157  1
  O  O19  1  0.480005  0.240636  0.085053  1
  O  O20  1  0.176850  0.588710  0.192216  1
  O  O21  1  0.410135  0.589228  0.192211  1
  O  O22  1  0.409795  0.822029  0.192224  1
  O  O23  1  0.176866  0.588702  0.307822  1
  O  O24  1  0.410151  0.589217  0.307824  1
  O  O25  1  0.409808  0.822018  0.307815  1
  O  O26  1  0.240611  0.483046  0.185230  1
  O  O27  1  0.240335  0.758218  0.185223  1
  O  O28  1  0.240627  0.483037  0.314805  1
  O  O29  1  0.240350  0.758208  0.314820  1
  O  O30  1  0.129020  0.462809  0.250019  1
  O  O31  1  0.331625  0.869772  0.250023  1
  O  O32  1  0.332314  0.463308  0.250015  1
  O  O33  1  0.128895  0.666624  0.250023  1
  Si  Si34  1  0.035561  0.429092  0.107341  1
  Si  Si35  1  0.391077  0.963094  0.107281  1
  Si  Si36  1  0.391765  0.429723  0.107239  1
  Si  Si37  1  0.035618  0.606983  0.107303  1
  Si  Si38  1  0.095157  0.369758  0.018009  1
  Si  Si39  1  0.271972  0.903632  0.018008  1
  Si  Si40  1  0.272640  0.370185  0.017972  1
  Si  Si41  1  0.095071  0.726073  0.018039  1
  Si  Si42  1  0.487423  0.332951  0.070902  1
  Si  Si43  1  0.486944  0.155476  0.070887  1
  Si  Si44  1  0.153874  0.488265  0.195864  1
  Si  Si45  1  0.332267  0.844956  0.195863  1
  Si  Si46  1  0.332777  0.488713  0.195864  1
  Si  Si47  1  0.153788  0.666123  0.195867  1
  Si  Si48  1  0.153890  0.488258  0.304173  1
  Si  Si49  1  0.332281  0.844946  0.304179  1
  Si  Si50  1  0.332792  0.488703  0.304169  1
  O  O51  1  0.294693  0.999948  0.000017  1
  O  O52  1  0.049223  0.524808  0.403329  1
  O  O53  1  0.473917  0.525461  0.403373  1
  O  O54  1  0.473211  0.949403  0.403425  1
  O  O55  1  0.433818  0.356472  0.658120  1
  O  O56  1  0.433321  0.078452  0.658108  1
  O  O57  1  0.077349  0.434367  0.341900  1
  O  O58  1  0.354811  0.921405  0.341932  1
  O  O59  1  0.355525  0.434948  0.341928  1
  O  O60  1  0.077261  0.643347  0.341916  1
  O  O61  1  0.066637  0.635463  0.601672  1
  O  O62  1  0.363280  0.432193  0.601742  1
  O  O63  1  0.362761  0.932124  0.601715  1
  O  O64  1  0.066661  0.431741  0.601705  1
  O  O65  1  0.430569  0.067734  0.398327  1
  O  O66  1  0.431076  0.364363  0.398359  1
  O  O67  1  0.403277  0.319671  0.567778  1
  O  O68  1  0.402530  0.084602  0.567777  1
  O  O69  1  0.083509  0.403860  0.432249  1
  O  O70  1  0.317857  0.915252  0.432264  1
  O  O71  1  0.318568  0.404457  0.432297  1
  O  O72  1  0.083543  0.680165  0.432259  1
  O  O73  1  0.295529  0.296706  0.500054  1
  O  O74  1  0.294728  0.999930  0.500024  1
  O  O75  1  0.446812  0.320028  0.480541  1
  O  O76  1  0.446180  0.127692  0.480535  1
  O  O77  1  0.126668  0.447584  0.519513  1
  O  O78  1  0.318432  0.872177  0.519506  1
  O  O79  1  0.318981  0.448004  0.519547  1
  O  O80  1  0.126705  0.679799  0.519491  1
  O  O81  1  0.340924  0.171237  0.519153  1
  O  O82  1  0.170135  0.342267  0.480904  1
  O  O83  1  0.169616  0.828606  0.480888  1
  O  O84  1  0.480042  0.240618  0.414978  1
  O  O85  1  0.239567  0.481238  0.585114  1
  O  O86  1  0.239358  0.759224  0.585059  1
  O  O87  1  0.175617  0.588168  0.570366  1
  O  O88  1  0.410598  0.588524  0.570460  1
  O  O89  1  0.410195  0.823195  0.570277  1
  Si  Si90  1  0.428589  0.392864  0.607295  1
  Si  Si91  1  0.427957  0.036784  0.607276  1
  Si  Si92  1  0.035591  0.429072  0.392700  1
  Si  Si93  1  0.391111  0.963076  0.392764  1
  Si  Si94  1  0.391795  0.429705  0.392786  1
  Si  Si95  1  0.035646  0.606962  0.392744  1
  Si  Si96  1  0.368958  0.273777  0.518031  1
  Si  Si97  1  0.368319  0.096256  0.518011  1
  Si  Si98  1  0.095190  0.369740  0.482032  1
  Si  Si99  1  0.272004  0.903612  0.482036  1
  Si  Si100  1  0.272675  0.370171  0.482055  1
  Si  Si101  1  0.095104  0.726052  0.482007  1
  Si  Si102  1  0.487453  0.332933  0.429124  1
  Si  Si103  1  0.486984  0.155462  0.429152  1
  Si  Si104  1  0.154436  0.488267  0.570923  1
  Si  Si105  1  0.331468  0.844403  0.570888  1
  Si  Si106  1  0.331895  0.488608  0.570976  1
  Si  Si107  1  0.154449  0.666895  0.570906  1
  O  O108  1  0.433795  0.356484  0.841906  1
  O  O109  1  0.433295  0.078464  0.841927  1
  O  O110  1  0.066603  0.635479  0.898373  1
  O  O111  1  0.363247  0.432206  0.898283  1
  O  O112  1  0.362722  0.932140  0.898326  1
  O  O113  1  0.066630  0.431760  0.898341  1
  O  O114  1  0.403244  0.319686  0.932247  1
  O  O115  1  0.402492  0.084617  0.932260  1
  Si  Si116  1  0.487580  0.333727  0.804170  1
  Si  Si117  1  0.487235  0.154923  0.804174  1
  O  O118  1  0.126638  0.447602  0.980529  1
  O  O119  1  0.318399  0.872197  0.980537  1
  O  O120  1  0.318948  0.448016  0.980480  1
  O  O121  1  0.126671  0.679817  0.980556  1
  O  O122  1  0.340891  0.171254  0.980879  1
  O  O123  1  0.239533  0.481256  0.914920  1
  O  O124  1  0.239319  0.759243  0.914986  1
  O  O125  1  0.175586  0.588188  0.929679  1
  O  O126  1  0.410566  0.588536  0.929568  1
  O  O127  1  0.410154  0.823210  0.929763  1
  O  O128  1  0.482056  0.241640  0.685219  1
  O  O129  1  0.482039  0.241648  0.814814  1
  O  O130  1  0.462180  0.333200  0.750015  1
  O  O131  1  0.461769  0.130099  0.750017  1
  Si  Si132  1  0.428559  0.392879  0.892729  1
  Si  Si133  1  0.427921  0.036799  0.892761  1
  Si  Si134  1  0.368927  0.273795  0.981995  1
  Si  Si135  1  0.368283  0.096272  0.982026  1
  Si  Si136  1  0.154407  0.488288  0.929119  1
  Si  Si137  1  0.331430  0.844422  0.929154  1
  Si  Si138  1  0.331863  0.488621  0.929051  1
  Si  Si139  1  0.154414  0.666913  0.929141  1
  Si  Si140  1  0.487596  0.333719  0.695862  1
  Si  Si141  1  0.487250  0.154915  0.695860  1
  O  O142  1  0.295496  0.296722  0.999973  1
  O  O143  1  0.564431  0.644063  0.158084  1
  O  O144  1  0.563937  0.921669  0.158074  1
  O  O145  1  0.930874  0.363848  0.101792  1
  O  O146  1  0.634823  0.568146  0.101699  1
  O  O147  1  0.634199  0.067728  0.101643  1
  O  O148  1  0.930965  0.567645  0.101748  1
  O  O149  1  0.594839  0.680715  0.067702  1
  O  O150  1  0.594402  0.915219  0.067748  1
  Si  Si151  1  0.510344  0.845191  0.304170  1
  Si  Si152  1  0.510628  0.666697  0.304172  1
  O  O153  1  0.870849  0.551847  0.019550  1
  O  O154  1  0.678697  0.127807  0.019496  1
  O  O155  1  0.678969  0.552293  0.019511  1
  O  O156  1  0.870907  0.319684  0.019601  1
  O  O157  1  0.656581  0.828961  0.019098  1
  O  O158  1  0.758205  0.518625  0.085114  1
  O  O159  1  0.757909  0.240442  0.085115  1
  O  O160  1  0.821955  0.411339  0.070462  1
  O  O161  1  0.587330  0.411695  0.070362  1
  O  O162  1  0.586877  0.176667  0.070278  1
  O  O163  1  0.515947  0.758699  0.185241  1
  O  O164  1  0.515961  0.758688  0.314793  1
  O  O165  1  0.536069  0.667278  0.250015  1
  O  O166  1  0.535764  0.870132  0.250018  1
  Si  Si167  1  0.569630  0.607623  0.107262  1
  Si  Si168  1  0.568979  0.963105  0.107216  1
  Si  Si169  1  0.629010  0.726543  0.017931  1
  Si  Si170  1  0.628722  0.903600  0.018007  1
  Si  Si171  1  0.843156  0.511242  0.070978  1
  Si  Si172  1  0.665636  0.155518  0.070885  1
  Si  Si173  1  0.666051  0.511610  0.070921  1
  Si  Si174  1  0.843095  0.332588  0.071002  1
  Si  Si175  1  0.510613  0.666707  0.195860  1
  Si  Si176  1  0.510331  0.845202  0.195867  1
  O  O177  1  0.998793  0.296182  0.000050  1
  O  O178  1  0.677236  0.999929  0.000024  1
  O  O179  1  0.998704  0.703140  0.000059  1
  O  O180  1  0.948360  0.474374  0.596659  1
  O  O181  1  0.524326  0.475042  0.596709  1
  O  O182  1  0.523728  0.050440  0.596616  1
  O  O183  1  0.920500  0.564889  0.658106  1
  O  O184  1  0.642212  0.078186  0.658078  1
  O  O185  1  0.642915  0.565491  0.658134  1
  O  O186  1  0.920337  0.355827  0.658095  1
  O  O187  1  0.564453  0.644049  0.341942  1
  O  O188  1  0.563959  0.921652  0.341964  1
  O  O189  1  0.566438  0.932122  0.601643  1
  O  O190  1  0.567015  0.636031  0.601787  1
  O  O191  1  0.930905  0.363827  0.398252  1
  O  O192  1  0.634854  0.568129  0.398326  1
  O  O193  1  0.634233  0.067708  0.398399  1
  O  O194  1  0.930994  0.567622  0.398298  1
  O  O195  1  0.914008  0.595362  0.567737  1
  O  O196  1  0.679154  0.084631  0.567750  1
  O  O197  1  0.679567  0.596004  0.567785  1
  O  O198  1  0.914081  0.319151  0.567711  1
  O  O199  1  0.594871  0.680696  0.432324  1
  O  O200  1  0.594442  0.915202  0.432290  1
  O  O201  1  0.998735  0.703117  0.499985  1
  O  O202  1  0.677278  0.999912  0.500017  1
  O  O203  1  0.702592  0.703695  0.500037  1
  Si  Si204  1  0.510100  0.844327  0.570883  1
  O  O205  1  0.870875  0.551821  0.480493  1
  O  O206  1  0.678733  0.127785  0.480548  1
  O  O207  1  0.678999  0.552274  0.480517  1
  O  O208  1  0.870942  0.319666  0.480446  1
  O  O209  1  0.551209  0.680192  0.519595  1
  O  O210  1  0.550868  0.872034  0.519492  1
  O  O211  1  0.827780  0.657574  0.519130  1
  O  O212  1  0.827589  0.170899  0.519102  1
  O  O213  1  0.656618  0.828942  0.480934  1
  O  O214  1  0.758236  0.518602  0.414920  1
  O  O215  1  0.757945  0.240418  0.414930  1
  O  O216  1  0.517459  0.759423  0.585110  1
  O  O217  1  0.821983  0.411314  0.429581  1
  O  O218  1  0.587359  0.411678  0.429664  1
  O  O219  1  0.586916  0.176649  0.429765  1
  Si  Si220  1  0.961996  0.570123  0.607244  1
  Si  Si221  1  0.605832  0.036741  0.607219  1
  Si  Si222  1  0.606440  0.570785  0.607339  1
  Si  Si223  1  0.961978  0.392255  0.607269  1
  Si  Si224  1  0.569660  0.607605  0.392763  1
  Si  Si225  1  0.569012  0.963086  0.392824  1
  Si  Si226  1  0.902397  0.629653  0.517984  1
  Si  Si227  1  0.725079  0.096232  0.518004  1
  Si  Si228  1  0.725362  0.630119  0.517998  1
  Si  Si229  1  0.902441  0.273331  0.517940  1
  Si  Si230  1  0.629043  0.726523  0.482095  1
  Si  Si231  1  0.628763  0.903585  0.482032  1
  Si  Si232  1  0.843182  0.511216  0.429064  1
  Si  Si233  1  0.665671  0.155496  0.429159  1
  Si  Si234  1  0.666081  0.511592  0.429106  1
  Si  Si235  1  0.843128  0.332566  0.429044  1
  Si  Si236  1  0.510502  0.667291  0.570998  1
  O  O237  1  0.998828  0.296165  0.499995  1
  O  O238  1  0.948326  0.474391  0.903387  1
  O  O239  1  0.524294  0.475058  0.903317  1
  O  O240  1  0.523691  0.050454  0.903424  1
  O  O241  1  0.920475  0.564900  0.841936  1
  O  O242  1  0.642186  0.078195  0.841966  1
  O  O243  1  0.642891  0.565504  0.841894  1
  O  O244  1  0.920312  0.355839  0.841952  1
  O  O245  1  0.566399  0.932136  0.898399  1
  O  O246  1  0.566983  0.636047  0.898239  1
  O  O247  1  0.913977  0.595384  0.932305  1
  O  O248  1  0.679113  0.084649  0.932294  1
  O  O249  1  0.679536  0.596022  0.932242  1
  O  O250  1  0.914047  0.319169  0.932336  1
  Si  Si251  1  0.843841  0.333180  0.804177  1
  O  O252  1  0.551177  0.680210  0.980432  1
  O  O253  1  0.550825  0.872045  0.980546  1
  O  O254  1  0.827748  0.657596  0.980904  1
  O  O255  1  0.827550  0.170916  0.980943  1
  O  O256  1  0.517419  0.759437  0.914923  1
  O  O257  1  0.820856  0.410637  0.692216  1
  O  O258  1  0.588085  0.411148  0.692212  1
  O  O259  1  0.587709  0.177833  0.692223  1
  O  O260  1  0.820837  0.410642  0.807822  1
  O  O261  1  0.588068  0.411158  0.807824  1
  O  O262  1  0.587693  0.177841  0.807814  1
  O  O263  1  0.757510  0.516815  0.685231  1
  O  O264  1  0.757190  0.241167  0.685244  1
  O  O265  1  0.757492  0.516823  0.814806  1
  O  O266  1  0.757173  0.241173  0.814799  1
  O  O267  1  0.868942  0.536548  0.750020  1
  O  O268  1  0.665537  0.129718  0.750022  1
  O  O269  1  0.666151  0.537057  0.750016  1
  O  O270  1  0.868737  0.332619  0.750023  1
  Si  Si271  1  0.961964  0.570139  0.892800  1
  Si  Si272  1  0.605795  0.036755  0.892824  1
  Si  Si273  1  0.606408  0.570801  0.892688  1
  Si  Si274  1  0.961947  0.392272  0.892778  1
  Si  Si275  1  0.902368  0.629677  0.982058  1
  Si  Si276  1  0.725040  0.096252  0.982041  1
  Si  Si277  1  0.725330  0.630139  0.982029  1
  Si  Si278  1  0.902405  0.273348  0.982107  1
  Si  Si279  1  0.510468  0.667305  0.929028  1
  Si  Si280  1  0.510058  0.844338  0.929156  1
  Si  Si281  1  0.844004  0.511141  0.695868  1
  Si  Si282  1  0.665059  0.154651  0.695868  1
  Si  Si283  1  0.665556  0.511602  0.695861  1
  Si  Si284  1  0.843857  0.333174  0.695866  1
  Si  Si285  1  0.843987  0.511147  0.804170  1
  Si  Si286  1  0.665043  0.154657  0.804173  1
  Si  Si287  1  0.665540  0.511611  0.804173  1
  O  O288  1  0.702559  0.703715  0.999989  1
