# generated using pymatgen
data_SiO2
_symmetry_space_group_name_H-M   'P 1'
_cell_length_a   12.88318504
_cell_length_b   12.88379592
_cell_length_c   15.17945030
_cell_angle_alpha   90.00000000
_cell_angle_beta   90.00000000
_cell_angle_gamma   120.00000000
_symmetry_Int_Tables_number   1
_chemical_formula_structural   SiO2
_chemical_formula_sum   'Si36 O72'
_cell_volume   2181.99503465
_cell_formula_units_Z   36
loop_
 _symmetry_equiv_pos_site_id
 _symmetry_equiv_pos_as_xyz
  1  'x, y, z'
loop_
 _atom_site_type_symbol
 _atom_site_label
 _atom_site_symmetry_multiplicity
 _atom_site_fract_x
 _atom_site_fract_y
 _atom_site_fract_z
 _atom_site_occupancy
  O  O1  1  0.318523  0.019557  0.083192  1
  O  O2  1  0.977539  0.301339  0.083052  1
  O  O3  1  0.695222  0.019862  0.083129  1
  O  O4  1  0.317756  0.301484  0.083306  1
  O  O5  1  0.454320  0.228916  0.139971  1
  O  O6  1  0.768574  0.229147  0.140026  1
  O  O7  1  0.393995  0.062939  0.250181  1
  O  O8  1  0.934953  0.333857  0.250037  1
  O  O9  1  0.663465  0.062991  0.250118  1
  O  O10  1  0.393664  0.334094  0.250235  1
  O  O11  1  0.541464  0.088908  0.127973  1
  O  O12  1  0.909495  0.456074  0.127773  1
  O  O13  1  0.540920  0.455862  0.127811  1
  O  O14  1  0.110111  0.226289  0.013239  1
  Si  Si15  1  0.424581  0.094669  0.149073  1
  Si  Si16  1  0.903128  0.333148  0.148970  1
  Si  Si17  1  0.664182  0.094813  0.149062  1
  Si  Si18  1  0.424142  0.333140  0.149070  1
  Si  Si19  1  0.236854  0.239672  0.000149  1
  O  O20  1  0.299068  0.320850  0.583364  1
  O  O21  1  0.017173  0.320958  0.583298  1
  O  O22  1  0.318864  0.019687  0.417057  1
  O  O23  1  0.978062  0.301561  0.417092  1
  O  O24  1  0.695878  0.019643  0.417013  1
  O  O25  1  0.318764  0.301781  0.417227  1
  O  O26  1  0.226439  0.457414  0.640028  1
  O  O27  1  0.455048  0.228985  0.360254  1
  O  O28  1  0.768947  0.228934  0.360304  1
  O  O29  1  0.541783  0.088575  0.372390  1
  O  O30  1  0.909754  0.456022  0.372144  1
  O  O31  1  0.541690  0.455943  0.372299  1
  O  O32  1  0.883811  0.113402  0.513521  1
  O  O33  1  0.224681  0.113413  0.513455  1
  O  O34  1  0.111026  0.226928  0.486832  1
  Si  Si35  1  0.330618  0.427130  0.649166  1
  Si  Si36  1  0.092006  0.427227  0.649073  1
  Si  Si37  1  0.425045  0.094637  0.351252  1
  Si  Si38  1  0.903409  0.333067  0.351166  1
  Si  Si39  1  0.664559  0.094596  0.351255  1
  Si  Si40  1  0.424846  0.333211  0.351261  1
  Si  Si41  1  0.997455  0.239875  0.500173  1
  Si  Si42  1  0.237554  0.239907  0.500206  1
  O  O43  1  0.298503  0.320898  0.917148  1
  O  O44  1  0.016737  0.321061  0.916947  1
  O  O45  1  0.226082  0.457630  0.860432  1
  O  O46  1  0.331134  0.396256  0.750289  1
  O  O47  1  0.060214  0.396531  0.750163  1
  O  O48  1  0.882930  0.113388  0.986457  1
  O  O49  1  0.224424  0.113388  0.986771  1
  Si  Si50  1  0.330175  0.427184  0.851353  1
  Si  Si51  1  0.091635  0.427430  0.851274  1
  Si  Si52  1  0.996789  0.239674  0.999912  1
  O  O53  1  0.695520  0.678628  0.083217  1
  O  O54  1  0.977454  0.678797  0.083016  1
  O  O55  1  0.768296  0.542058  0.139734  1
  O  O56  1  0.663527  0.603158  0.250001  1
  O  O57  1  0.934724  0.603433  0.249875  1
  O  O58  1  0.110882  0.886302  0.013389  1
  O  O59  1  0.769389  0.886304  0.013711  1
  Si  Si60  1  0.664053  0.572261  0.148890  1
  Si  Si61  1  0.902838  0.572507  0.148810  1
  Si  Si62  1  0.756960  0.760019  0.000254  1
  Si  Si63  1  0.756468  0.999843  0.000082  1
  Si  Si64  1  0.997025  0.760016  0.000013  1
  Si  Si65  1  0.237398  0.999847  0.000080  1
  O  O66  1  0.676069  0.980040  0.583136  1
  O  O67  1  0.016825  0.697900  0.582938  1
  O  O68  1  0.299017  0.980001  0.583111  1
  O  O69  1  0.676348  0.698128  0.583069  1
  O  O70  1  0.696065  0.678729  0.416865  1
  O  O71  1  0.978067  0.678836  0.416800  1
  O  O72  1  0.539858  0.770755  0.639858  1
  O  O73  1  0.225905  0.770701  0.639911  1
  O  O74  1  0.768869  0.542276  0.360137  1
  O  O75  1  0.453049  0.911112  0.627775  1
  O  O76  1  0.085591  0.543742  0.627865  1
  O  O77  1  0.453579  0.543667  0.628017  1
  O  O78  1  0.883949  0.772763  0.513330  1
  O  O79  1  0.111116  0.886271  0.486707  1
  O  O80  1  0.770255  0.886284  0.486639  1
  Si  Si81  1  0.569804  0.905090  0.648903  1
  Si  Si82  1  0.091474  0.666469  0.648904  1
  Si  Si83  1  0.330249  0.905051  0.648913  1
  Si  Si84  1  0.570190  0.666627  0.648996  1
  Si  Si85  1  0.664623  0.572461  0.351090  1
  Si  Si86  1  0.903333  0.572558  0.350997  1
  Si  Si87  1  0.997494  0.759776  0.499959  1
  Si  Si88  1  0.237603  0.999846  0.500083  1
  Si  Si89  1  0.757431  0.759816  0.499988  1
  Si  Si90  1  0.757305  0.999840  0.500077  1
  O  O91  1  0.675208  0.979827  0.917032  1
  O  O92  1  0.016115  0.698203  0.916857  1
  O  O93  1  0.298817  0.980135  0.916973  1
  O  O94  1  0.676043  0.698357  0.917113  1
  O  O95  1  0.539273  0.770548  0.860127  1
  O  O96  1  0.225248  0.770771  0.860193  1
  O  O97  1  0.600328  0.936705  0.750038  1
  O  O98  1  0.059408  0.665585  0.749930  1
  O  O99  1  0.330895  0.936747  0.749984  1
  O  O100  1  0.600945  0.665835  0.750125  1
  O  O101  1  0.452405  0.910785  0.872183  1
  O  O102  1  0.084900  0.543825  0.872355  1
  O  O103  1  0.453265  0.543623  0.872389  1
  O  O104  1  0.883665  0.773400  0.986925  1
  Si  Si105  1  0.569218  0.904881  0.851094  1
  Si  Si106  1  0.090843  0.666544  0.851096  1
  Si  Si107  1  0.329758  0.905021  0.851092  1
  Si  Si108  1  0.569827  0.666550  0.851191  1
