# generated using pymatgen
data_SiO2
_symmetry_space_group_name_H-M   'P 1'
_cell_length_a   20.93028129
_cell_length_b   20.93009487
_cell_length_c   8.49563914
_cell_angle_alpha   90.00000000
_cell_angle_beta   90.00000000
_cell_angle_gamma   120.00000000
_symmetry_Int_Tables_number   1
_chemical_formula_structural   SiO2
_chemical_formula_sum   'Si48 O96'
_cell_volume   3223.09384551
_cell_formula_units_Z   48
loop_
 _symmetry_equiv_pos_site_id
 _symmetry_equiv_pos_as_xyz
  1  'x, y, z'
loop_
 _atom_site_type_symbol
 _atom_site_label
 _atom_site_symmetry_multiplicity
 _atom_site_fract_x
 _atom_site_fract_y
 _atom_site_fract_z
 _atom_site_occupancy
  O  O1  1  0.726412  0.075049  0.844307  1
  O  O2  1  0.924892  0.651204  0.844301  1
  O  O3  1  0.348738  0.273531  0.844310  1
  O  O4  1  0.273621  0.924806  0.344304  1
  O  O5  1  0.075135  0.348656  0.344312  1
  O  O6  1  0.651287  0.726323  0.344299  1
  O  O7  1  0.924894  0.273532  0.844312  1
  O  O8  1  0.348739  0.075046  0.844302  1
  O  O9  1  0.726411  0.651203  0.844298  1
  O  O10  1  0.075136  0.726321  0.344302  1
  O  O11  1  0.651289  0.924806  0.344307  1
  O  O12  1  0.273622  0.348655  0.344313  1
  O  O13  1  0.828477  0.171464  0.040616  1
  O  O14  1  0.828476  0.656850  0.040605  1
  O  O15  1  0.343088  0.171464  0.040615  1
  O  O16  1  0.171553  0.828388  0.540605  1
  O  O17  1  0.171554  0.343003  0.540616  1
  O  O18  1  0.656939  0.828391  0.540605  1
  O  O19  1  0.695817  0.145349  0.049819  1
  O  O20  1  0.854592  0.550308  0.049809  1
  O  O21  1  0.449634  0.304123  0.049829  1
  O  O22  1  0.304214  0.854503  0.549824  1
  O  O23  1  0.145439  0.449551  0.549834  1
  O  O24  1  0.550392  0.695729  0.549817  1
  O  O25  1  0.854591  0.304126  0.049828  1
  O  O26  1  0.449637  0.145350  0.049825  1
  O  O27  1  0.695814  0.550306  0.049809  1
  O  O28  1  0.145436  0.695728  0.549817  1
  O  O29  1  0.550395  0.854506  0.549820  1
  O  O30  1  0.304213  0.449549  0.549831  1
  O  O31  1  0.711708  0.039574  0.136467  1
  O  O32  1  0.960364  0.671973  0.136460  1
  O  O33  1  0.327967  0.288232  0.136475  1
  O  O34  1  0.288320  0.960280  0.636465  1
  O  O35  1  0.039661  0.327880  0.636470  1
  O  O36  1  0.672062  0.711622  0.636456  1
  O  O37  1  0.960367  0.288234  0.136475  1
  O  O38  1  0.327967  0.039571  0.136469  1
  O  O39  1  0.711707  0.671973  0.136459  1
  O  O40  1  0.039661  0.711622  0.636457  1
  O  O41  1  0.672062  0.960280  0.636463  1
  O  O42  1  0.288320  0.327880  0.636471  1
  O  O43  1  0.730517  0.269425  0.172391  1
  O  O44  1  0.730515  0.460931  0.172377  1
  O  O45  1  0.539008  0.269422  0.172393  1
  O  O46  1  0.269512  0.730431  0.672396  1
  O  O47  1  0.269512  0.538920  0.672408  1
  O  O48  1  0.461020  0.730429  0.672393  1
  O  O49  1  0.589899  0.179697  0.113035  1
  O  O50  1  0.820242  0.410039  0.113031  1
  O  O51  1  0.589897  0.410039  0.113031  1
  O  O52  1  0.410128  0.820154  0.613037  1
  O  O53  1  0.179788  0.589813  0.613039  1
  O  O54  1  0.410127  0.589813  0.613039  1
  O  O55  1  0.654342  0.147728  0.326750  1
  O  O56  1  0.852210  0.506454  0.326743  1
  O  O57  1  0.493487  0.345597  0.326758  1
  O  O58  1  0.345687  0.852126  0.826749  1
  O  O59  1  0.147815  0.493401  0.826757  1
  O  O60  1  0.506542  0.654255  0.826742  1
  O  O61  1  0.852209  0.345597  0.326753  1
  O  O62  1  0.493487  0.147727  0.326750  1
  O  O63  1  0.654342  0.506453  0.326737  1
  O  O64  1  0.147812  0.654254  0.826747  1
  O  O65  1  0.506542  0.852127  0.826749  1
  O  O66  1  0.345688  0.493400  0.826760  1
  O  O67  1  0.581797  0.928725  0.083718  1
  O  O68  1  0.071214  0.652912  0.083714  1
  O  O69  1  0.347033  0.418147  0.083727  1
  O  O70  1  0.418231  0.071130  0.583718  1
  O  O71  1  0.928808  0.346939  0.583729  1
  O  O72  1  0.653005  0.581713  0.583713  1
  O  O73  1  0.071215  0.418146  0.083732  1
  O  O74  1  0.347030  0.928724  0.083720  1
  O  O75  1  0.581798  0.652913  0.083710  1
  O  O76  1  0.928807  0.581713  0.583713  1
  O  O77  1  0.653002  0.071132  0.583717  1
  O  O78  1  0.418233  0.346940  0.583728  1
  O  O79  1  0.605400  0.013547  0.317654  1
  O  O80  1  0.986391  0.591691  0.317650  1
  O  O81  1  0.408250  0.394540  0.317665  1
  O  O82  1  0.394628  0.986308  0.817649  1
  O  O83  1  0.013631  0.408158  0.817654  1
  O  O84  1  0.591783  0.605314  0.817640  1
  O  O85  1  0.986393  0.394542  0.317663  1
  O  O86  1  0.408247  0.013545  0.317653  1
  O  O87  1  0.605400  0.591694  0.317644  1
  O  O88  1  0.013631  0.605314  0.817642  1
  O  O89  1  0.591781  0.986307  0.817653  1
  O  O90  1  0.394629  0.408160  0.817659  1
  O  O91  1  0.531526  0.062949  0.466344  1
  O  O92  1  0.936987  0.468416  0.466347  1
  O  O93  1  0.531525  0.468413  0.466344  1
  O  O94  1  0.468506  0.936907  0.966336  1
  O  O95  1  0.063031  0.531439  0.966337  1
  O  O96  1  0.468506  0.531436  0.966337  1
  Si  Si97  1  0.744898  0.108159  0.018085  1
  Si  Si98  1  0.891779  0.636578  0.018080  1
  Si  Si99  1  0.363360  0.255040  0.018085  1
  Si  Si100  1  0.255125  0.891688  0.518083  1
  Si  Si101  1  0.108246  0.363273  0.518086  1
  Si  Si102  1  0.636664  0.744807  0.518081  1
  Si  Si103  1  0.891786  0.255045  0.018086  1
  Si  Si104  1  0.363361  0.108158  0.018081  1
  Si  Si105  1  0.744896  0.636577  0.018084  1
  Si  Si106  1  0.108247  0.744810  0.518077  1
  Si  Si107  1  0.636664  0.891692  0.518088  1
  Si  Si108  1  0.255124  0.363272  0.518085  1
  Si  Si109  1  0.666777  0.186551  0.159448  1
  Si  Si110  1  0.813386  0.480067  0.159444  1
  Si  Si111  1  0.519873  0.333164  0.159454  1
  Si  Si112  1  0.333250  0.813301  0.659451  1
  Si  Si113  1  0.186640  0.519784  0.659465  1
  Si  Si114  1  0.480158  0.666692  0.659446  1
  Si  Si115  1  0.813390  0.333161  0.159455  1
  Si  Si116  1  0.519873  0.186549  0.159447  1
  Si  Si117  1  0.666779  0.480068  0.159443  1
  Si  Si118  1  0.186638  0.666693  0.659452  1
  Si  Si119  1  0.480155  0.813306  0.659450  1
  Si  Si120  1  0.333248  0.519788  0.659462  1
  Si  Si121  1  0.639750  0.974116  0.217962  1
  Si  Si122  1  0.025827  0.665475  0.217970  1
  Si  Si123  1  0.334463  0.360193  0.217995  1
  Si  Si124  1  0.360279  0.025746  0.717984  1
  Si  Si125  1  0.974196  0.334375  0.717985  1
  Si  Si126  1  0.665563  0.639662  0.717957  1
  Si  Si127  1  0.025831  0.360196  0.217995  1
  Si  Si128  1  0.334466  0.974111  0.217974  1
  Si  Si129  1  0.639749  0.665472  0.217960  1
  Si  Si130  1  0.974196  0.639662  0.717966  1
  Si  Si131  1  0.665568  0.025745  0.717976  1
  Si  Si132  1  0.360280  0.334370  0.717988  1
  Si  Si133  1  0.611609  0.075934  0.432015  1
  Si  Si134  1  0.924003  0.535514  0.432006  1
  Si  Si135  1  0.464432  0.388335  0.432017  1
  Si  Si136  1  0.388423  0.923921  0.932017  1
  Si  Si137  1  0.076017  0.464339  0.932020  1
  Si  Si138  1  0.535610  0.611522  0.932007  1
  Si  Si139  1  0.924004  0.388332  0.432022  1
  Si  Si140  1  0.464428  0.075933  0.432016  1
  Si  Si141  1  0.611611  0.535516  0.432003  1
  Si  Si142  1  0.076015  0.611520  0.932004  1
  Si  Si143  1  0.535605  0.923925  0.932011  1
  Si  Si144  1  0.388424  0.464341  0.932025  1
