# generated using pymatgen
data_SiO2
_symmetry_space_group_name_H-M   'P 1'
_cell_length_a   9.01536926
_cell_length_b   17.58038539
_cell_length_c   9.98664247
_cell_angle_alpha   90.00000000
_cell_angle_beta   124.93900000
_cell_angle_gamma   90.00000000
_symmetry_Int_Tables_number   1
_chemical_formula_structural   SiO2
_chemical_formula_sum   'Si24 O48'
_cell_volume   1297.53571909
_cell_formula_units_Z   24
loop_
 _symmetry_equiv_pos_site_id
 _symmetry_equiv_pos_as_xyz
  1  'x, y, z'
loop_
 _atom_site_type_symbol
 _atom_site_label
 _atom_site_symmetry_multiplicity
 _atom_site_fract_x
 _atom_site_fract_y
 _atom_site_fract_z
 _atom_site_occupancy
  O  O1  1  0.833061  0.122027  0.131082  1
  O  O2  1  0.168667  0.122952  0.869161  1
  Si  Si3  1  0.291841  0.193555  0.897680  1
  Si  Si4  1  0.709814  0.192630  0.102808  1
  O  O5  1  0.172090  0.135543  0.298966  1
  O  O6  1  0.829977  0.135919  0.702040  1
  O  O7  1  0.001299  0.097622  0.000401  1
  O  O8  1  0.240107  0.230421  0.733551  1
  O  O9  1  0.762373  0.229565  0.267160  1
  Si  Si10  1  0.707455  0.207627  0.616967  1
  O  O11  1  0.501081  0.186383  0.501377  1
  O  O12  1  0.500705  0.177094  0.000257  1
  Si  Si13  1  0.294618  0.207231  0.384194  1
  Si  Si14  1  0.010756  0.086415  0.160827  1
  Si  Si15  1  0.991716  0.086832  0.839821  1
  O  O16  1  0.666994  0.375587  0.871969  1
  O  O17  1  0.334986  0.375727  0.130476  1
  Si  Si18  1  0.208033  0.304830  0.089535  1
  O  O19  1  0.327442  0.362942  0.699946  1
  O  O20  1  0.674024  0.362232  0.298227  1
  O  O21  1  0.498801  0.401938  0.999113  1
  O  O22  1  0.273245  0.259902  0.248634  1
  O  O23  1  0.730229  0.260810  0.752461  1
  Si  Si24  1  0.793613  0.304747  0.912214  1
  O  O25  1  0.000475  0.311394  0.500047  1
  O  O26  1  0.000910  0.322067  0.002049  1
  Si  Si27  1  0.793524  0.291130  0.394013  1
  Si  Si28  1  0.488332  0.412123  0.838227  1
  Si  Si29  1  0.512976  0.411906  0.161801  1
  Si  Si30  1  0.207679  0.291614  0.605610  1
  O  O31  1  0.246602  0.254729  0.486537  1
  O  O32  1  0.532328  0.499113  0.201897  1
  O  O33  1  0.753728  0.254674  0.512835  1
  O  O34  1  0.242344  0.252930  0.982757  1
  O  O35  1  0.758369  0.252049  0.017184  1
  O  O36  1  0.472652  0.499448  0.799795  1
  O  O37  1  0.338834  0.623143  0.130814  1
  O  O38  1  0.670716  0.622648  0.872115  1
  O  O39  1  0.251770  0.744419  0.489234  1
  O  O40  1  0.678445  0.635481  0.301488  1
  O  O41  1  0.331797  0.636463  0.703199  1
  O  O42  1  0.505272  0.596679  0.002139  1
  O  O43  1  0.733450  0.738275  0.753919  1
  O  O44  1  0.276463  0.738102  0.250323  1
  O  O45  1  0.758692  0.743411  0.515206  1
  O  O46  1  0.005288  0.687186  0.501755  1
  O  O47  1  0.005062  0.676484  0.001817  1
  O  O48  1  0.246265  0.746516  0.984651  1
  O  O49  1  0.763259  0.745537  0.019315  1
  Si  Si50  1  0.516864  0.586445  0.163565  1
  Si  Si51  1  0.492175  0.586650  0.839963  1
  Si  Si52  1  0.798003  0.706810  0.396158  1
  Si  Si53  1  0.212155  0.707595  0.607875  1
  Si  Si54  1  0.212183  0.693949  0.090601  1
  Si  Si55  1  0.797774  0.693493  0.912983  1
  O  O56  1  0.172904  0.876599  0.870938  1
  O  O57  1  0.837155  0.875530  0.132686  1
  O  O58  1  0.834208  0.862688  0.702761  1
  O  O59  1  0.176214  0.862978  0.299681  1
  O  O60  1  0.003969  0.900948  0.000912  1
  O  O61  1  0.765482  0.768175  0.268451  1
  O  O62  1  0.243187  0.768905  0.735075  1
  Si  Si63  1  0.713881  0.805007  0.104319  1
  O  O64  1  0.505335  0.812228  0.501632  1
  O  O65  1  0.505019  0.821443  0.001715  1
  Si  Si66  1  0.994854  0.912148  0.840649  1
  Si  Si67  1  0.013820  0.911723  0.161614  1
  Si  Si68  1  0.711632  0.790970  0.618175  1
  Si  Si69  1  0.298795  0.791354  0.385528  1
  Si  Si70  1  0.295870  0.805811  0.899467  1
  O  O71  1  0.975006  0.999473  0.801662  1
  O  O72  1  0.030108  0.999082  0.199483  1
