# generated using pymatgen
data_SiO2
_symmetry_space_group_name_H-M   'P 1'
_cell_length_a   12.29740588
_cell_length_b   12.29755406
_cell_length_c   35.64908765
_cell_angle_alpha   90.00000000
_cell_angle_beta   90.00000000
_cell_angle_gamma   120.00000000
_symmetry_Int_Tables_number   1
_chemical_formula_structural   SiO2
_chemical_formula_sum   'Si84 O168'
_cell_volume   4668.86481124
_cell_formula_units_Z   84
loop_
 _symmetry_equiv_pos_site_id
 _symmetry_equiv_pos_as_xyz
  1  'x, y, z'
loop_
 _atom_site_type_symbol
 _atom_site_label
 _atom_site_symmetry_multiplicity
 _atom_site_fract_x
 _atom_site_fract_y
 _atom_site_fract_z
 _atom_site_occupancy
  O  O1  1  0.548680  0.094523  0.041279  1
  O  O2  1  0.905194  0.451878  0.041272  1
  O  O3  1  0.549054  0.452377  0.041342  1
  O  O4  1  0.689020  0.018688  0.070963  1
  O  O5  1  0.981769  0.667756  0.071048  1
  O  O6  1  0.332886  0.311900  0.070902  1
  O  O7  1  0.981478  0.312376  0.071195  1
  O  O8  1  0.332247  0.018815  0.070637  1
  O  O9  1  0.688980  0.668381  0.071065  1
  O  O10  1  0.786125  0.214405  0.030443  1
  O  O11  1  0.786341  0.570343  0.030389  1
  O  O12  1  0.431746  0.214986  0.030332  1
  O  O13  1  0.001310  0.353878  0.000239  1
  O  O14  1  0.001104  0.645892  0.000013  1
  Si  Si15  1  0.750028  0.999817  0.107081  1
  Si  Si16  1  0.252418  0.250856  0.106899  1
  O  O17  1  0.239778  0.118924  0.112929  1
  O  O18  1  0.881686  0.119379  0.113229  1
  O  O19  1  0.881641  0.760304  0.113272  1
  O  O20  1  0.118424  0.881966  0.102516  1
  O  O21  1  0.118585  0.234838  0.102505  1
  O  O22  1  0.766778  0.882432  0.102755  1
  O  O23  1  0.317225  0.979092  0.141688  1
  O  O24  1  0.022488  0.336230  0.142237  1
  O  O25  1  0.664653  0.684137  0.142152  1
  O  O26  1  0.022609  0.684217  0.142135  1
  O  O27  1  0.664610  0.978670  0.142055  1
  O  O28  1  0.317006  0.335842  0.141920  1
  Si  Si29  1  0.667810  0.081533  0.035687  1
  Si  Si30  1  0.918933  0.584301  0.035674  1
  Si  Si31  1  0.417039  0.333193  0.035662  1
  Si  Si32  1  0.918714  0.333022  0.035809  1
  Si  Si33  1  0.416789  0.081907  0.035477  1
  Si  Si34  1  0.667934  0.584654  0.035726  1
  Si  Si35  1  0.252373  0.999658  0.106760  1
  Si  Si36  1  0.001055  0.251206  0.107144  1
  Si  Si37  1  0.750017  0.748317  0.107163  1
  Si  Si38  1  0.001053  0.747974  0.107102  1
  O  O39  1  0.647202  0.646129  0.000062  1
  O  O40  1  0.355258  0.353761  0.000053  1
  O  O41  1  0.557757  0.778315  0.320771  1
  O  O42  1  0.222984  0.776833  0.321028  1
  O  O43  1  0.222903  0.444933  0.320995  1
  O  O44  1  0.555696  0.776984  0.178881  1
  O  O45  1  0.224234  0.778564  0.178985  1
  O  O46  1  0.224183  0.443762  0.179049  1
  O  O47  1  0.670542  0.982894  0.286190  1
  O  O48  1  0.018306  0.686869  0.286349  1
  O  O49  1  0.315095  0.333322  0.286011  1
  O  O50  1  0.018147  0.329911  0.286428  1
  O  O51  1  0.315408  0.980047  0.285765  1
  O  O52  1  0.671019  0.686552  0.286308  1
  O  O53  1  0.668232  0.980500  0.214047  1
  O  O54  1  0.020927  0.685680  0.214183  1
  O  O55  1  0.314894  0.330093  0.213850  1
  O  O56  1  0.020971  0.333530  0.214274  1
  O  O57  1  0.314772  0.983287  0.213605  1
  O  O58  1  0.668017  0.686054  0.214151  1
  O  O59  1  0.461973  0.920837  0.320090  1
  O  O60  1  0.078151  0.538486  0.319736  1
  O  O61  1  0.461859  0.540126  0.319890  1
  O  O62  1  0.462251  0.922295  0.179919  1
  O  O63  1  0.081762  0.539934  0.179810  1
  O  O64  1  0.462205  0.538133  0.179941  1
  O  O65  1  0.112453  0.888872  0.249928  1
  O  O66  1  0.112363  0.221833  0.250081  1
  O  O67  1  0.779336  0.888937  0.250078  1
  O  O68  1  0.254424  0.126356  0.251449  1
  O  O69  1  0.874803  0.126422  0.248772  1
  O  O70  1  0.874908  0.746946  0.248690  1
  Si  Si71  1  0.587150  0.917990  0.321529  1
  Si  Si72  1  0.082764  0.667328  0.321597  1
  Si  Si73  1  0.333298  0.415560  0.321559  1
  Si  Si74  1  0.082694  0.414222  0.321620  1
  Si  Si75  1  0.333297  0.916641  0.321512  1
  Si  Si76  1  0.587143  0.668021  0.321537  1
  Si  Si77  1  0.586211  0.917163  0.178420  1
  Si  Si78  1  0.084672  0.667958  0.178472  1
  Si  Si79  1  0.333828  0.413387  0.178461  1
  Si  Si80  1  0.084622  0.414790  0.178527  1
  Si  Si81  1  0.333857  0.918607  0.178317  1
  Si  Si82  1  0.586128  0.667265  0.178486  1
  Si  Si83  1  0.252526  0.998781  0.250047  1
  Si  Si84  1  0.002465  0.252026  0.250019  1
  Si  Si85  1  0.749233  0.748881  0.249935  1
  Si  Si86  1  0.002496  0.748827  0.249910  1
  Si  Si87  1  0.749125  0.998815  0.249902  1
  Si  Si88  1  0.252448  0.252009  0.250221  1
  O  O89  1  0.547995  0.095207  0.458546  1
  O  O90  1  0.905005  0.452321  0.458664  1
  O  O91  1  0.547876  0.452399  0.458797  1
  O  O92  1  0.688569  0.019245  0.429095  1
  O  O93  1  0.981338  0.668814  0.429182  1
  O  O94  1  0.332117  0.312209  0.429026  1
  O  O95  1  0.981576  0.312111  0.429315  1
  O  O96  1  0.332234  0.019547  0.428767  1
  O  O97  1  0.688492  0.668627  0.429191  1
  O  O98  1  0.785221  0.214918  0.469623  1
  O  O99  1  0.785282  0.570057  0.469750  1
  O  O100  1  0.430328  0.214931  0.469548  1
  O  O101  1  0.353892  0.999699  0.499712  1
  O  O102  1  0.645941  0.999800  0.499960  1
  Si  Si103  1  0.252433  0.251591  0.392865  1
  O  O104  1  0.240204  0.119912  0.386539  1
  O  O105  1  0.881428  0.119928  0.386924  1
  O  O106  1  0.881119  0.760526  0.386822  1
  O  O107  1  0.118131  0.882835  0.397209  1
  O  O108  1  0.118366  0.234894  0.397371  1
  O  O109  1  0.766568  0.882869  0.397483  1
  O  O110  1  0.316368  0.978691  0.357751  1
  O  O111  1  0.022108  0.337417  0.358294  1
  O  O112  1  0.663894  0.684226  0.358209  1
  O  O113  1  0.021985  0.683738  0.358202  1
  O  O114  1  0.664455  0.978957  0.358086  1
  O  O115  1  0.316844  0.337578  0.357992  1
  Si  Si116  1  0.666968  0.082053  0.464299  1
  Si  Si117  1  0.918070  0.584456  0.464367  1
  Si  Si118  1  0.415751  0.333261  0.464379  1
  Si  Si119  1  0.918089  0.333288  0.464437  1
  Si  Si120  1  0.415831  0.082139  0.464125  1
  Si  Si121  1  0.666914  0.584530  0.464465  1
  Si  Si122  1  0.252184  0.000254  0.392681  1
  Si  Si123  1  0.000918  0.251592  0.393167  1
  Si  Si124  1  0.749589  0.748631  0.393115  1
  Si  Si125  1  0.000760  0.748588  0.393018  1
  Si  Si126  1  0.749834  0.000254  0.393070  1
  O  O127  1  0.452488  0.905527  0.541400  1
  O  O128  1  0.095754  0.547805  0.541388  1
  O  O129  1  0.451961  0.547357  0.541289  1
  O  O130  1  0.311466  0.981399  0.570617  1
  O  O131  1  0.019282  0.331907  0.571202  1
  O  O132  1  0.667978  0.687864  0.570940  1
  O  O133  1  0.019320  0.687896  0.570866  1
  O  O134  1  0.668861  0.980936  0.570819  1
  O  O135  1  0.312034  0.331487  0.571081  1
  O  O136  1  0.215204  0.785155  0.530354  1
  O  O137  1  0.214627  0.429269  0.530402  1
  O  O138  1  0.569276  0.784813  0.530398  1
  O  O139  1  0.000264  0.645880  0.500017  1
  Si  Si140  1  0.748322  0.748798  0.606965  1
  Si  Si141  1  0.250843  0.000115  0.606844  1
  O  O142  1  0.760711  0.880576  0.613173  1
  O  O143  1  0.119349  0.880383  0.613118  1
  O  O144  1  0.119647  0.240017  0.613499  1
  O  O145  1  0.882713  0.117668  0.602757  1
  O  O146  1  0.882314  0.765239  0.602487  1
  O  O147  1  0.233894  0.117457  0.602756  1
  O  O148  1  0.683649  0.021038  0.641817  1
  O  O149  1  0.978516  0.663013  0.641822  1
  O  O150  1  0.336991  0.315736  0.642138  1
  O  O151  1  0.978075  0.315750  0.642231  1
  O  O152  1  0.336992  0.021161  0.641625  1
  O  O153  1  0.683989  0.663320  0.641922  1
  Si  Si154  1  0.333280  0.918232  0.535535  1
  Si  Si155  1  0.082095  0.415381  0.535832  1
  Si  Si156  1  0.583990  0.666571  0.535659  1
  Si  Si157  1  0.082458  0.666719  0.535672  1
  Si  Si158  1  0.584314  0.917905  0.535658  1
  Si  Si159  1  0.333112  0.415038  0.535699  1
  Si  Si160  1  0.748597  0.000127  0.606974  1
  Si  Si161  1  0.999824  0.748706  0.606908  1
  Si  Si162  1  0.251116  0.251748  0.607221  1
  Si  Si163  1  0.999938  0.251837  0.607293  1
  O  O164  1  0.999587  0.353784  0.500241  1
  O  O165  1  0.645920  0.646107  0.500057  1
  O  O166  1  0.353920  0.353462  0.500061  1
  O  O167  1  0.444167  0.222482  0.820874  1
  O  O168  1  0.778792  0.222460  0.821135  1
  O  O169  1  0.777267  0.554026  0.821120  1
  O  O170  1  0.444628  0.221681  0.678991  1
  O  O171  1  0.776391  0.221712  0.679100  1
  O  O172  1  0.777995  0.556683  0.679168  1
  O  O173  1  0.334023  0.019412  0.785620  1
  O  O174  1  0.983213  0.312915  0.786372  1
  O  O175  1  0.686147  0.666633  0.786008  1
  O  O176  1  0.980448  0.666437  0.785859  1
  O  O177  1  0.685766  0.019374  0.785829  1
  O  O178  1  0.329892  0.313174  0.786301  1
  O  O179  1  0.329436  0.016622  0.713472  1
  O  O180  1  0.979929  0.313949  0.714213  1
  O  O181  1  0.686103  0.669235  0.713848  1
  O  O182  1  0.982774  0.669676  0.713710  1
  O  O183  1  0.686391  0.016837  0.713667  1
  O  O184  1  0.333394  0.313813  0.714136  1
  O  O185  1  0.540138  0.079747  0.820341  1
  O  O186  1  0.922449  0.460460  0.820036  1
  O  O187  1  0.538467  0.460482  0.820021  1
  O  O188  1  0.538015  0.076742  0.680212  1
  O  O189  1  0.920158  0.460683  0.680116  1
  O  O190  1  0.539780  0.460698  0.680027  1
  O  O191  1  0.888689  0.110790  0.749949  1
  O  O192  1  0.888735  0.777900  0.750012  1
  O  O193  1  0.221916  0.110877  0.750015  1
  O  O194  1  0.746461  0.873216  0.751273  1
  O  O195  1  0.126267  0.873430  0.751341  1
  O  O196  1  0.126190  0.252646  0.748539  1
  Si  Si197  1  0.415122  0.082893  0.821412  1
  Si  Si198  1  0.918831  0.332112  0.821707  1
  Si  Si199  1  0.667543  0.584449  0.821591  1
  Si  Si200  1  0.917425  0.584475  0.821522  1
  Si  Si201  1  0.668268  0.082864  0.821627  1
  Si  Si202  1  0.413734  0.332100  0.821563  1
  Si  Si203  1  0.413830  0.081441  0.678314  1
  Si  Si204  1  0.916166  0.332114  0.678588  1
  Si  Si205  1  0.667667  0.585996  0.678479  1
  Si  Si206  1  0.917644  0.586006  0.678437  1
  Si  Si207  1  0.666935  0.081481  0.678444  1
  Si  Si208  1  0.415261  0.332081  0.678494  1
  Si  Si209  1  0.748598  0.000922  0.750040  1
  Si  Si210  1  0.998668  0.747753  0.750107  1
  Si  Si211  1  0.251957  0.250904  0.749886  1
  Si  Si212  1  0.998652  0.250846  0.749889  1
  Si  Si213  1  0.252025  0.000935  0.749988  1
  Si  Si214  1  0.748632  0.747655  0.750168  1
  O  O215  1  0.453103  0.904107  0.958688  1
  O  O216  1  0.096278  0.547412  0.958760  1
  O  O217  1  0.453435  0.547295  0.958723  1
  O  O218  1  0.313300  0.980065  0.928748  1
  O  O219  1  0.019900  0.330942  0.929336  1
  O  O220  1  0.669397  0.687514  0.929055  1
  O  O221  1  0.019879  0.687093  0.928985  1
  O  O222  1  0.668887  0.980139  0.928949  1
  O  O223  1  0.312754  0.330918  0.929219  1
  O  O224  1  0.215714  0.784927  0.969532  1
  O  O225  1  0.216047  0.429815  0.969762  1
  O  O226  1  0.570962  0.784680  0.969605  1
  Si  Si227  1  0.749176  0.748284  0.892919  1
  Si  Si228  1  0.251694  0.999267  0.892833  1
  O  O229  1  0.761505  0.880052  0.886759  1
  O  O230  1  0.119942  0.879771  0.886802  1
  O  O231  1  0.119822  0.238457  0.887074  1
  O  O232  1  0.882935  0.116970  0.897453  1
  O  O233  1  0.883128  0.764648  0.897329  1
  O  O234  1  0.235144  0.116678  0.897497  1
  O  O235  1  0.684995  0.020725  0.857876  1
  O  O236  1  0.979233  0.662836  0.857873  1
  O  O237  1  0.336692  0.315328  0.858207  1
  O  O238  1  0.979710  0.315735  0.858293  1
  O  O239  1  0.336376  0.020711  0.857663  1
  O  O240  1  0.684548  0.662731  0.857992  1
  Si  Si241  1  0.334227  0.917576  0.964157  1
  Si  Si242  1  0.083178  0.415301  0.964520  1
  Si  Si243  1  0.585549  0.666401  0.964361  1
  Si  Si244  1  0.082993  0.666396  0.964291  1
  Si  Si245  1  0.585350  0.917451  0.964313  1
  Si  Si246  1  0.334329  0.415241  0.964437  1
  Si  Si247  1  0.749045  0.999422  0.892886  1
  Si  Si248  1  0.000543  0.748005  0.892921  1
  Si  Si249  1  0.251548  0.250692  0.893188  1
  Si  Si250  1  0.000518  0.250995  0.893213  1
  O  O251  1  0.355241  0.000264  0.999722  1
  O  O252  1  0.647202  0.999620  0.999962  1
