# generated using pymatgen
data_SiO2
_symmetry_space_group_name_H-M   'P 1'
_cell_length_a   24.47478738
_cell_length_b   24.46902407
_cell_length_c   24.47170892
_cell_angle_alpha   90.00000000
_cell_angle_beta   90.00000000
_cell_angle_gamma   90.00000000
_symmetry_Int_Tables_number   1
_chemical_formula_structural   SiO2
_chemical_formula_sum   'Si192 O384'
_cell_volume   14655.4741578
_cell_formula_units_Z   192
loop_
 _symmetry_equiv_pos_site_id
 _symmetry_equiv_pos_as_xyz
  1  'x, y, z'
loop_
 _atom_site_type_symbol
 _atom_site_label
 _atom_site_symmetry_multiplicity
 _atom_site_fract_x
 _atom_site_fract_y
 _atom_site_fract_z
 _atom_site_occupancy
  Si  Si1  1  0.946999  0.213740  0.124867  1
  O  O2  1  0.500042  0.398200  0.101854  1
  O  O3  1  0.101774  0.351759  0.250045  1
  O  O4  1  0.898284  0.249978  0.148223  1
  O  O5  1  0.648299  0.398223  0.250032  1
  O  O6  1  0.601789  0.398201  0.000035  1
  O  O7  1  0.851802  0.499972  0.148224  1
  O  O8  1  0.148288  0.351783  0.000037  1
  O  O9  1  0.250033  0.351816  0.101867  1
  Si  Si10  1  0.286276  0.375185  0.053158  1
  Si  Si11  1  0.036291  0.124820  0.303157  1
  O  O12  1  0.351791  0.101780  0.250029  1
  O  O13  1  0.750044  0.398180  0.148212  1
  O  O14  1  0.898303  0.148198  0.250038  1
  O  O15  1  0.000035  0.351771  0.148223  1
  O  O16  1  0.351782  0.250014  0.101847  1
  O  O17  1  0.960932  0.076982  0.077035  1
  O  O18  1  0.577051  0.460827  0.077049  1
  O  O19  1  0.039153  0.326980  0.327060  1
  O  O20  1  0.923043  0.210819  0.327059  1
  O  O21  1  0.923019  0.326999  0.210844  1
  O  O22  1  0.710922  0.423002  0.327046  1
  O  O23  1  0.327052  0.039160  0.327048  1
  O  O24  1  0.827053  0.422949  0.210839  1
  O  O25  1  0.289137  0.173021  0.077046  1
  O  O26  1  0.173036  0.289173  0.077063  1
  O  O27  1  0.423029  0.422969  0.039223  1
  O  O28  1  0.960926  0.172981  0.173028  1
  O  O29  1  0.077038  0.289138  0.173021  1
  O  O30  1  0.077057  0.172966  0.289243  1
  O  O31  1  0.289158  0.077007  0.173027  1
  O  O32  1  0.673051  0.460830  0.173004  1
  O  O33  1  0.173039  0.077029  0.289231  1
  O  O34  1  0.327042  0.327042  0.039237  1
  O  O35  1  0.497304  0.497221  0.135420  1
  O  O36  1  0.002769  0.385345  0.247256  1
  O  O37  1  0.864702  0.247213  0.247252  1
  O  O38  1  0.747299  0.364616  0.247247  1
  O  O39  1  0.385390  0.002760  0.247236  1
  O  O40  1  0.252782  0.252796  0.135447  1
  O  O41  1  0.502780  0.364616  0.002827  1
  O  O42  1  0.864728  0.002726  0.002801  1
  O  O43  1  0.997310  0.114613  0.252829  1
  O  O44  1  0.997290  0.252756  0.114634  1
  O  O45  1  0.135380  0.252749  0.252833  1
  O  O46  1  0.252787  0.135381  0.252836  1
  O  O47  1  0.752804  0.497195  0.114617  1
  O  O48  1  0.614712  0.497240  0.252808  1
  O  O49  1  0.247290  0.385384  0.002834  1
  O  O50  1  0.385361  0.247259  0.002814  1
  O  O51  1  0.933933  0.177123  0.072870  1
  O  O52  1  0.572918  0.433848  0.177202  1
  O  O53  1  0.066135  0.427129  0.322877  1
  O  O54  1  0.822897  0.322812  0.183852  1
  O  O55  1  0.683931  0.322856  0.322875  1
  O  O56  1  0.927176  0.427136  0.183856  1
  O  O57  1  0.316140  0.072879  0.072868  1
  O  O58  1  0.177159  0.316153  0.177218  1
  O  O59  1  0.677177  0.433826  0.072858  1
  O  O60  1  0.933949  0.072834  0.177196  1
  O  O61  1  0.427174  0.066148  0.322854  1
  O  O62  1  0.822913  0.183834  0.322861  1
  O  O63  1  0.072906  0.316143  0.072870  1
  O  O64  1  0.316139  0.177155  0.177201  1
  O  O65  1  0.322902  0.427177  0.066215  1
  O  O66  1  0.177181  0.177157  0.316239  1
  O  O67  1  0.072914  0.072829  0.316222  1
  O  O68  1  0.427169  0.322842  0.066225  1
  Si  Si69  1  0.947010  0.125127  0.036257  1
  Si  Si70  1  0.536296  0.446906  0.125208  1
  Si  Si71  1  0.053062  0.375123  0.286277  1
  Si  Si72  1  0.874896  0.286210  0.196930  1
  Si  Si73  1  0.697009  0.374856  0.286267  1
  Si  Si74  1  0.875178  0.463739  0.196934  1
  Si  Si75  1  0.303052  0.124878  0.036264  1
  Si  Si76  1  0.213786  0.303105  0.125224  1
  Si  Si77  1  0.625178  0.446913  0.036258  1
  Si  Si78  1  0.947012  0.036221  0.125195  1
  Si  Si79  1  0.375176  0.053066  0.286253  1
  Si  Si80  1  0.786284  0.374808  0.196920  1
  Si  Si81  1  0.874918  0.196908  0.286267  1
  Si  Si82  1  0.963790  0.375140  0.196928  1
  Si  Si83  1  0.124908  0.303072  0.036269  1
  Si  Si84  1  0.303069  0.213777  0.125209  1
  Si  Si85  1  0.374908  0.463765  0.053123  1
  Si  Si86  1  0.947019  0.124834  0.213806  1
  Si  Si87  1  0.036285  0.303066  0.124861  1
  Si  Si88  1  0.125179  0.213756  0.303157  1
  Si  Si89  1  0.303072  0.125152  0.213807  1
  Si  Si90  1  0.713803  0.446891  0.124847  1
  Si  Si91  1  0.124916  0.036234  0.303131  1
  Si  Si92  1  0.375165  0.286250  0.053141  1
  Si  Si93  1  0.463795  0.374828  0.053151  1
  Si  Si94  1  0.624922  0.446931  0.213797  1
  Si  Si95  1  0.303087  0.036253  0.124862  1
  Si  Si96  1  0.213805  0.125170  0.303161  1
  Si  Si97  1  0.125162  0.303052  0.213815  1
  O  O98  1  0.898299  0.101751  0.000027  1
  O  O99  1  0.351805  0.000016  0.148209  1
  O  O100  1  0.351765  0.148245  0.000036  1
  O  O101  1  0.398311  0.101743  0.500043  1
  O  O102  1  0.000042  0.398209  0.601866  1
  Si  Si103  1  0.786285  0.375170  0.553159  1
  Si  Si104  1  0.696998  0.286232  0.374867  1
  O  O105  1  0.000044  0.148186  0.351864  1
  O  O106  1  0.398298  0.249965  0.648231  1
  O  O107  1  0.250052  0.101795  0.351863  1
  O  O108  1  0.351817  0.499966  0.648191  1
  Si  Si109  1  0.963791  0.374836  0.553166  1
  O  O110  1  0.851776  0.148229  0.500029  1
  O  O111  1  0.750041  0.351795  0.601864  1
  O  O112  1  0.648283  0.249993  0.398221  1
  O  O113  1  0.101781  0.398224  0.500035  1
  Si  Si114  1  0.875161  0.196940  0.463803  1
  Si  Si115  1  0.447012  0.213722  0.624882  1
  O  O116  1  0.500042  0.101787  0.398210  1
  Si  Si117  1  0.803074  0.036229  0.624849  1
  O  O118  1  0.250052  0.398174  0.648195  1
  O  O119  1  0.101793  0.249987  0.351865  1
  O  O120  1  0.500050  0.351756  0.648215  1
  O  O121  1  0.648299  0.351764  0.500038  1
  O  O122  1  0.851796  0.249996  0.601845  1
  O  O123  1  0.750037  0.148197  0.398203  1
  O  O124  1  0.460940  0.076960  0.577053  1
  O  O125  1  0.077050  0.460841  0.577055  1
  O  O126  1  0.577058  0.077011  0.460826  1
  O  O127  1  0.789152  0.173001  0.577037  1
  O  O128  1  0.673047  0.289150  0.577059  1
  O  O129  1  0.673021  0.172962  0.460826  1
  O  O130  1  0.039149  0.422997  0.423033  1
  O  O131  1  0.423049  0.039141  0.423005  1
  O  O132  1  0.923023  0.422977  0.539241  1
  O  O133  1  0.710926  0.326989  0.423030  1
  O  O134  1  0.827035  0.210842  0.423007  1
  O  O135  1  0.827054  0.327030  0.539238  1
  O  O136  1  0.497311  0.135344  0.497250  1
  O  O137  1  0.997305  0.497230  0.635429  1
  O  O138  1  0.135382  0.497243  0.497246  1
  O  O139  1  0.002787  0.247205  0.385449  1
  O  O140  1  0.247309  0.002773  0.385424  1
  O  O141  1  0.752773  0.114625  0.497232  1
  O  O142  1  0.752795  0.252773  0.635436  1
  O  O143  1  0.614709  0.252743  0.497252  1
  O  O144  1  0.002774  0.364630  0.502840  1
  O  O145  1  0.502794  0.002773  0.364612  1
  O  O146  1  0.364718  0.002731  0.502815  1
  O  O147  1  0.497303  0.252736  0.614641  1
  O  O148  1  0.252815  0.497190  0.614601  1
  O  O149  1  0.747301  0.385371  0.502833  1
  O  O150  1  0.747287  0.247215  0.364623  1
  O  O151  1  0.885374  0.247249  0.502815  1
  O  O152  1  0.433948  0.177103  0.572887  1
  O  O153  1  0.677178  0.072826  0.433833  1
  O  O154  1  0.927163  0.183843  0.427211  1
  O  O155  1  0.322925  0.066133  0.427210  1
  O  O156  1  0.816136  0.072854  0.572857  1
  O  O157  1  0.572898  0.177152  0.433847  1
  O  O158  1  0.177177  0.433838  0.572846  1
  O  O159  1  0.683932  0.427135  0.427202  1
  O  O160  1  0.066134  0.322847  0.427215  1
  O  O161  1  0.572917  0.316120  0.572865  1
  O  O162  1  0.822901  0.427165  0.566231  1
  O  O163  1  0.927175  0.322841  0.566233  1
  Si  Si164  1  0.447025  0.125106  0.536276  1
  Si  Si165  1  0.036298  0.446917  0.625216  1
  Si  Si166  1  0.625180  0.036221  0.446912  1
  Si  Si167  1  0.963794  0.196894  0.375222  1
  Si  Si168  1  0.286303  0.053085  0.375212  1
  Si  Si169  1  0.803062  0.124858  0.536254  1
  Si  Si170  1  0.713797  0.303081  0.625220  1
  Si  Si171  1  0.624899  0.213755  0.446923  1
  Si  Si172  1  0.125172  0.446934  0.536259  1
  Si  Si173  1  0.447013  0.036200  0.625214  1
  Si  Si174  1  0.536287  0.125153  0.446916  1
  Si  Si175  1  0.696992  0.463759  0.375207  1
  Si  Si176  1  0.053077  0.286223  0.375222  1
  Si  Si177  1  0.624920  0.303050  0.536265  1
  Si  Si178  1  0.803082  0.213756  0.625200  1
  Si  Si179  1  0.713791  0.124822  0.446904  1
  Si  Si180  1  0.053062  0.374854  0.463814  1
  Si  Si181  1  0.463797  0.053080  0.374845  1
  Si  Si182  1  0.874899  0.463768  0.553147  1
  Si  Si183  1  0.536297  0.303047  0.624857  1
  Si  Si184  1  0.213812  0.446888  0.624833  1
  Si  Si185  1  0.697013  0.375135  0.463809  1
  Si  Si186  1  0.786285  0.196907  0.374847  1
  Si  Si187  1  0.875177  0.286238  0.553144  1
  Si  Si188  1  0.374926  0.053041  0.463805  1
  Si  Si189  1  0.053075  0.463754  0.374869  1
  O  O190  1  0.101790  0.499993  0.398220  1
  O  O191  1  0.648280  0.499997  0.351845  1
  O  O192  1  0.101794  0.000010  0.898200  1
  O  O193  1  0.601791  0.351728  0.750040  1
  O  O194  1  0.500039  0.148165  0.851880  1
  O  O195  1  0.148316  0.398229  0.750025  1
  O  O196  1  0.750042  0.101760  0.851853  1
  O  O197  1  0.148277  0.250011  0.898222  1
  Si  Si198  1  0.625175  0.303019  0.713811  1
  O  O199  1  0.000038  0.101804  0.898193  1
  O  O200  1  0.851775  0.101763  0.750022  1
  Si  Si201  1  0.196995  0.286246  0.874867  1
  Si  Si202  1  0.375154  0.196949  0.963804  1
  O  O203  1  0.398299  0.148191  0.750046  1
  O  O204  1  0.601795  0.249962  0.851859  1
  Si  Si205  1  0.536284  0.124789  0.803176  1
  O  O206  1  0.250030  0.148214  0.898207  1
  O  O207  1  0.077047  0.077035  0.960818  1
  O  O208  1  0.539160  0.326960  0.827049  1
  O  O209  1  0.423045  0.210809  0.827065  1
  O  O210  1  0.423033  0.326995  0.710840  1
  O  O211  1  0.210946  0.423002  0.827036  1
  O  O212  1  0.827050  0.039138  0.827043  1
  O  O213  1  0.327068  0.422946  0.710814  1
  O  O214  1  0.173013  0.172984  0.960832  1
  O  O215  1  0.539170  0.422980  0.923022  1
  O  O216  1  0.923052  0.039150  0.922994  1
  O  O217  1  0.460935  0.172964  0.673045  1
  O  O218  1  0.577051  0.289117  0.673015  1
  O  O219  1  0.577050  0.172932  0.789251  1
  O  O220  1  0.789147  0.076984  0.673013  1
  O  O221  1  0.173065  0.460830  0.672993  1
  O  O222  1  0.673024  0.076987  0.789229  1
  O  O223  1  0.210920  0.327002  0.923031  1
  O  O224  1  0.327032  0.210851  0.923005  1
  O  O225  1  0.997294  0.135369  0.997230  1
  O  O226  1  0.635400  0.497215  0.997242  1
  O  O227  1  0.502789  0.385336  0.747243  1
  O  O228  1  0.502791  0.247190  0.885448  1
  O  O229  1  0.364713  0.247215  0.747256  1
  O  O230  1  0.247314  0.364615  0.747233  1
  O  O231  1  0.747308  0.002741  0.885421  1
  O  O232  1  0.885387  0.002754  0.747228  1
  O  O233  1  0.252764  0.114642  0.997240  1
  O  O234  1  0.114697  0.252765  0.997256  1
  O  O235  1  0.002797  0.002783  0.864603  1
  O  O236  1  0.497300  0.114585  0.752851  1
  O  O237  1  0.635379  0.252711  0.752826  1
  O  O238  1  0.752768  0.135346  0.752823  1
  O  O239  1  0.114738  0.497249  0.752799  1
  O  O240  1  0.247284  0.247228  0.864625  1
  O  O241  1  0.072928  0.433858  0.677204  1
  O  O242  1  0.177169  0.072852  0.933831  1
  O  O243  1  0.566164  0.427101  0.822868  1
  O  O244  1  0.427159  0.183844  0.927219  1
  O  O245  1  0.322911  0.322807  0.683843  1
  O  O246  1  0.183939  0.322865  0.822870  1
  O  O247  1  0.822920  0.066116  0.927200  1
  O  O248  1  0.427193  0.427125  0.683832  1
  O  O249  1  0.677174  0.316119  0.677217  1
  O  O250  1  0.072891  0.177175  0.933841  1
  O  O251  1  0.433948  0.072818  0.677212  1
  O  O252  1  0.927170  0.066148  0.822842  1
  O  O253  1  0.183943  0.427148  0.927193  1
  O  O254  1  0.322908  0.183842  0.822861  1
  O  O255  1  0.566144  0.322828  0.927206  1
  O  O256  1  0.816135  0.177131  0.677195  1
  O  O257  1  0.677172  0.177119  0.816235  1
  O  O258  1  0.572905  0.072794  0.816236  1
  Si  Si259  1  0.125172  0.036247  0.946908  1
  Si  Si260  1  0.553078  0.375101  0.786267  1
  Si  Si261  1  0.463793  0.196882  0.875228  1
  Si  Si262  1  0.374909  0.286206  0.696931  1
  Si  Si263  1  0.197027  0.374857  0.786257  1
  Si  Si264  1  0.786298  0.053056  0.875206  1
  Si  Si265  1  0.375194  0.463731  0.696902  1
  Si  Si266  1  0.124890  0.213776  0.946927  1
  Si  Si267  1  0.036277  0.125176  0.946902  1
  Si  Si268  1  0.875169  0.053056  0.786246  1
  Si  Si269  1  0.197021  0.463762  0.875196  1
  Si  Si270  1  0.286296  0.374805  0.696903  1
  Si  Si271  1  0.374919  0.196907  0.786270  1
  Si  Si272  1  0.553083  0.286204  0.875214  1
  Si  Si273  1  0.463806  0.375132  0.696916  1
  Si  Si274  1  0.213783  0.124845  0.946911  1
  Si  Si275  1  0.553073  0.374835  0.963806  1
  Si  Si276  1  0.963798  0.053089  0.874832  1
  Si  Si277  1  0.447016  0.124819  0.713823  1
  Si  Si278  1  0.625175  0.213723  0.803154  1
  Si  Si279  1  0.803057  0.125127  0.713796  1
  Si  Si280  1  0.624903  0.036195  0.803139  1
  Si  Si281  1  0.197004  0.375149  0.963808  1
  Si  Si282  1  0.286280  0.196919  0.874846  1
  Si  Si283  1  0.874927  0.053040  0.963792  1
  Si  Si284  1  0.553106  0.463731  0.874857  1
  Si  Si285  1  0.124938  0.446937  0.713790  1
  Si  Si286  1  0.713791  0.125129  0.803152  1
  O  O287  1  0.601825  0.499965  0.898210  1
  O  O288  1  0.000065  0.898185  0.101844  1
  O  O289  1  0.601794  0.851774  0.250002  1
  O  O290  1  0.398303  0.750007  0.148172  1
  O  O291  1  0.148321  0.898230  0.250010  1
  O  O292  1  0.648338  0.851731  0.000009  1
  O  O293  1  0.750070  0.851766  0.101841  1
  O  O294  1  0.851780  0.601750  0.250030  1
  O  O295  1  0.250058  0.898214  0.148179  1
  O  O296  1  0.398305  0.648236  0.249989  1
  O  O297  1  0.500059  0.851805  0.148166  1
  O  O298  1  0.851824  0.749972  0.101838  1
  O  O299  1  0.460952  0.576993  0.077009  1
  O  O300  1  0.077051  0.960837  0.077040  1
  O  O301  1  0.539158  0.826997  0.327003  1
  O  O302  1  0.423040  0.710845  0.327015  1
  O  O303  1  0.423043  0.827032  0.210788  1
  O  O304  1  0.210951  0.923001  0.327016  1
  O  O305  1  0.827031  0.539146  0.327062  1
  O  O306  1  0.327073  0.922980  0.210808  1
  O  O307  1  0.789186  0.672976  0.077024  1
  O  O308  1  0.673069  0.789126  0.077041  1
  O  O309  1  0.923052  0.922948  0.039220  1
  O  O310  1  0.460940  0.673012  0.172984  1
  O  O311  1  0.577053  0.789162  0.172977  1
  O  O312  1  0.577063  0.672970  0.289200  1
  O  O313  1  0.789161  0.576972  0.173015  1
  O  O314  1  0.173055  0.960848  0.172988  1
  O  O315  1  0.673028  0.577020  0.289228  1
  O  O316  1  0.827090  0.826994  0.039223  1
  O  O317  1  0.997304  0.997207  0.135426  1
  O  O318  1  0.502792  0.885376  0.247198  1
  O  O319  1  0.364712  0.747251  0.247203  1
  O  O320  1  0.247323  0.864628  0.247206  1
  O  O321  1  0.885370  0.502732  0.247260  1
  O  O322  1  0.752814  0.752751  0.135424  1
  O  O323  1  0.002804  0.864614  0.002809  1
  O  O324  1  0.364723  0.502752  0.002791  1
  O  O325  1  0.497311  0.614633  0.252790  1
  O  O326  1  0.497309  0.752784  0.114589  1
  O  O327  1  0.635383  0.752753  0.252787  1
  O  O328  1  0.752781  0.635355  0.252815  1
  O  O329  1  0.252800  0.997236  0.114616  1
  O  O330  1  0.114722  0.997248  0.252800  1
  O  O331  1  0.747341  0.885332  0.002808  1
  O  O332  1  0.885413  0.747214  0.002809  1
  O  O333  1  0.433968  0.677143  0.072824  1
  O  O334  1  0.072932  0.933849  0.177192  1
  O  O335  1  0.566146  0.927141  0.322841  1
  O  O336  1  0.322922  0.822849  0.183798  1
  O  O337  1  0.183958  0.822855  0.322836  1
  O  O338  1  0.427193  0.927172  0.183811  1
  O  O339  1  0.816171  0.572830  0.072863  1
  O  O340  1  0.677188  0.816134  0.177185  1
  O  O341  1  0.177183  0.933866  0.072833  1
  O  O342  1  0.433950  0.572867  0.177161  1
  O  O343  1  0.927162  0.566134  0.322858  1
  O  O344  1  0.322916  0.683848  0.322813  1
  O  O345  1  0.572942  0.816131  0.072824  1
  O  O346  1  0.816158  0.677114  0.177186  1
  O  O347  1  0.822931  0.927131  0.066210  1
  O  O348  1  0.677182  0.677160  0.316202  1
  O  O349  1  0.572902  0.572836  0.316201  1
  O  O350  1  0.927212  0.822811  0.066212  1
  Si  Si351  1  0.447046  0.625137  0.036226  1
  Si  Si352  1  0.036303  0.946901  0.125201  1
  Si  Si353  1  0.553076  0.875143  0.286227  1
  Si  Si354  1  0.374919  0.786242  0.196878  1
  Si  Si355  1  0.197037  0.874858  0.286233  1
  Si  Si356  1  0.375195  0.963773  0.196906  1
  Si  Si357  1  0.803106  0.624829  0.036250  1
  Si  Si358  1  0.713819  0.803061  0.125200  1
  Si  Si359  1  0.125176  0.946943  0.036242  1
  Si  Si360  1  0.447018  0.536240  0.125173  1
  Si  Si361  1  0.875159  0.553044  0.286267  1
  Si  Si362  1  0.286305  0.874840  0.196880  1
  Si  Si363  1  0.374916  0.696943  0.286218  1
  Si  Si364  1  0.463811  0.875175  0.196870  1
  Si  Si365  1  0.624948  0.803027  0.036240  1
  Si  Si366  1  0.803105  0.713735  0.125188  1
  Si  Si367  1  0.874928  0.963737  0.053128  1
  Si  Si368  1  0.447024  0.624869  0.213764  1
  Si  Si369  1  0.536307  0.803092  0.124813  1
  Si  Si370  1  0.625185  0.713761  0.303111  1
  Si  Si371  1  0.803071  0.625118  0.213794  1
  Si  Si372  1  0.213806  0.946923  0.124827  1
  Si  Si373  1  0.624904  0.536231  0.303135  1
  Si  Si374  1  0.875214  0.786206  0.053134  1
  Si  Si375  1  0.963824  0.874809  0.053139  1
  Si  Si376  1  0.124934  0.946941  0.213786  1
  Si  Si377  1  0.803094  0.536211  0.124857  1
  Si  Si378  1  0.713797  0.625162  0.303143  1
  Si  Si379  1  0.625177  0.803062  0.213775  1
  Si  Si380  1  0.447019  0.713768  0.124819  1
  Si  Si381  1  0.536290  0.624832  0.303119  1
  Si  Si382  1  0.786319  0.875134  0.053139  1
  O  O383  1  0.898304  0.999976  0.101835  1
  O  O384  1  0.101799  0.898235  0.000008  1
  O  O385  1  0.851825  0.648195  0.000024  1
  O  O386  1  0.398299  0.500005  0.101821  1
  O  O387  1  0.898300  0.601776  0.500023  1
  O  O388  1  0.500053  0.898166  0.601844  1
  O  O389  1  0.500042  0.648205  0.351818  1
  O  O390  1  0.898313  0.750007  0.648203  1
  O  O391  1  0.750038  0.601794  0.351854  1
  O  O392  1  0.351790  0.648200  0.499993  1
  O  O393  1  0.250060  0.851766  0.601833  1
  O  O394  1  0.148299  0.749993  0.398186  1
  O  O395  1  0.601786  0.898211  0.500010  1
  O  O396  1  0.000043  0.601790  0.398195  1
  Si  Si397  1  0.286305  0.875141  0.553132  1
  O  O398  1  0.750054  0.898191  0.648185  1
  O  O399  1  0.601794  0.749997  0.351813  1
  O  O400  1  0.000063  0.851813  0.648178  1
  O  O401  1  0.148325  0.851762  0.500005  1
  O  O402  1  0.351808  0.749969  0.601814  1
  O  O403  1  0.250044  0.648188  0.398170  1
  O  O404  1  0.960937  0.577000  0.577022  1
  O  O405  1  0.577044  0.960814  0.577045  1
  O  O406  1  0.077059  0.577027  0.460823  1
  O  O407  1  0.289170  0.672972  0.577009  1
  O  O408  1  0.173058  0.789137  0.577027  1
  O  O409  1  0.173039  0.672967  0.460802  1
  O  O410  1  0.539157  0.922994  0.423001  1
  O  O411  1  0.923038  0.539155  0.423010  1
  O  O412  1  0.423040  0.922947  0.539225  1
  O  O413  1  0.210947  0.826984  0.422993  1
  O  O414  1  0.327043  0.710821  0.422971  1
  O  O415  1  0.327072  0.827000  0.539206  1
  O  O416  1  0.997307  0.635378  0.497217  1
  O  O417  1  0.497301  0.997180  0.635445  1
  O  O418  1  0.635377  0.997227  0.497236  1
  O  O419  1  0.502786  0.747223  0.385398  1
  O  O420  1  0.747280  0.502778  0.385446  1
  O  O421  1  0.252788  0.614609  0.497205  1
  O  O422  1  0.252804  0.752745  0.635409  1
  O  O423  1  0.114716  0.752751  0.497216  1
  O  O424  1  0.502786  0.864610  0.502803  1
  O  O425  1  0.002784  0.502768  0.364631  1
  O  O426  1  0.864701  0.502758  0.502820  1
  O  O427  1  0.997309  0.752796  0.614591  1
  O  O428  1  0.752787  0.997210  0.614611  1
  O  O429  1  0.247327  0.885353  0.502802  1
  O  O430  1  0.247300  0.747208  0.364591  1
  O  O431  1  0.385383  0.747218  0.502781  1
  O  O432  1  0.933952  0.677149  0.572848  1
  O  O433  1  0.177179  0.572830  0.433821  1
  O  O434  1  0.427170  0.683840  0.427165  1
  O  O435  1  0.822907  0.566145  0.427208  1
  O  O436  1  0.316160  0.572827  0.572832  1
  O  O437  1  0.072913  0.677157  0.433814  1
  O  O438  1  0.677171  0.933833  0.572841  1
  O  O439  1  0.183963  0.927131  0.427173  1
  O  O440  1  0.566144  0.822851  0.427163  1
  O  O441  1  0.072937  0.816154  0.572828  1
  O  O442  1  0.322921  0.927132  0.566215  1
  O  O443  1  0.427193  0.822804  0.566196  1
  Si  Si444  1  0.947021  0.625146  0.536244  1
  Si  Si445  1  0.536298  0.946875  0.625208  1
  Si  Si446  1  0.125181  0.536233  0.446918  1
  Si  Si447  1  0.463792  0.696913  0.375174  1
  Si  Si448  1  0.786279  0.553083  0.375220  1
  Si  Si449  1  0.303080  0.624828  0.536227  1
  Si  Si450  1  0.213811  0.803058  0.625189  1
  Si  Si451  1  0.124915  0.713757  0.446892  1
  Si  Si452  1  0.625167  0.946916  0.536246  1
  Si  Si453  1  0.947015  0.536246  0.625189  1
  Si  Si454  1  0.036293  0.625169  0.446894  1
  Si  Si455  1  0.197022  0.963755  0.375181  1
  Si  Si456  1  0.553079  0.786236  0.375165  1
  Si  Si457  1  0.124936  0.803055  0.536232  1
  Si  Si458  1  0.303095  0.713730  0.625170  1
  Si  Si459  1  0.213803  0.624822  0.446882  1
  Si  Si460  1  0.553072  0.874847  0.463778  1
  Si  Si461  1  0.963789  0.553080  0.374848  1
  Si  Si462  1  0.374919  0.963738  0.553139  1
  Si  Si463  1  0.036308  0.803102  0.624819  1
  Si  Si464  1  0.713797  0.946895  0.624832  1
  Si  Si465  1  0.197039  0.875128  0.463776  1
  Si  Si466  1  0.286293  0.696896  0.374809  1
  Si  Si467  1  0.375193  0.786206  0.553111  1
  Si  Si468  1  0.874911  0.553062  0.463802  1
  Si  Si469  1  0.553083  0.963755  0.374841  1
  Si  Si470  1  0.463808  0.874802  0.553135  1
  Si  Si471  1  0.303105  0.536207  0.624830  1
  Si  Si472  1  0.947026  0.713774  0.624836  1
  Si  Si473  1  0.375169  0.696913  0.463765  1
  Si  Si474  1  0.197015  0.786229  0.374829  1
  O  O475  1  0.851796  0.999997  0.648199  1
  O  O476  1  0.398300  0.999966  0.601851  1
  O  O477  1  0.898293  0.500008  0.601845  1
  O  O478  1  0.601796  0.999991  0.398203  1
  O  O479  1  0.148305  0.999993  0.351830  1
  O  O480  1  0.398334  0.601767  0.999997  1
  Si  Si481  1  0.875207  0.696907  0.963795  1
  O  O482  1  0.101805  0.851777  0.750005  1
  O  O483  1  0.000080  0.648206  0.851841  1
  O  O484  1  0.648317  0.898189  0.750016  1
  O  O485  1  0.250075  0.601794  0.851833  1
  O  O486  1  0.648333  0.749959  0.898199  1
  Si  Si487  1  0.697045  0.786199  0.874840  1
  O  O488  1  0.500078  0.601769  0.898175  1
  O  O489  1  0.351812  0.601742  0.750003  1
  O  O490  1  0.898345  0.648242  0.750014  1
  O  O491  1  0.101834  0.750007  0.851821  1
  O  O492  1  0.148313  0.500005  0.851834  1
  O  O493  1  0.750086  0.648162  0.898190  1
  O  O494  1  0.577089  0.576998  0.960811  1
  O  O495  1  0.039181  0.826997  0.827013  1
  O  O496  1  0.923082  0.710847  0.827048  1
  O  O497  1  0.923055  0.827037  0.710809  1
  O  O498  1  0.710945  0.922968  0.827022  1
  O  O499  1  0.327065  0.539138  0.827033  1
  O  O500  1  0.827070  0.922969  0.710810  1
  O  O501  1  0.673072  0.672933  0.960814  1
  O  O502  1  0.039162  0.923006  0.923002  1
  O  O503  1  0.423072  0.539140  0.922982  1
  O  O504  1  0.960965  0.673019  0.672998  1
  O  O505  1  0.077056  0.789165  0.672981  1
  O  O506  1  0.077096  0.672977  0.789216  1
  O  O507  1  0.289182  0.576965  0.672994  1
  O  O508  1  0.673048  0.960817  0.672998  1
  O  O509  1  0.173059  0.577028  0.789216  1
  O  O510  1  0.710970  0.826957  0.923001  1
  O  O511  1  0.827080  0.710807  0.923000  1
  O  O512  1  0.497339  0.635356  0.997203  1
  O  O513  1  0.135374  0.997256  0.997233  1
  O  O514  1  0.002803  0.885382  0.747211  1
  O  O515  1  0.002832  0.747221  0.885425  1
  O  O516  1  0.864742  0.747254  0.747241  1
  O  O517  1  0.747326  0.864609  0.747214  1
  O  O518  1  0.247314  0.502776  0.885428  1
  O  O519  1  0.385394  0.502724  0.747227  1
  O  O520  1  0.752822  0.614591  0.997222  1
  O  O521  1  0.614744  0.752715  0.997229  1
  O  O522  1  0.502820  0.502750  0.864609  1
  O  O523  1  0.997345  0.614642  0.752803  1
  O  O524  1  0.135399  0.752757  0.752787  1
  O  O525  1  0.252812  0.635352  0.752797  1
  O  O526  1  0.614705  0.997203  0.752813  1
  O  O527  1  0.747335  0.747182  0.864610  1
  O  O528  1  0.572928  0.933810  0.677196  1
  O  O529  1  0.677218  0.572798  0.933829  1
  O  O530  1  0.066159  0.927146  0.822846  1
  O  O531  1  0.927212  0.683838  0.927197  1
  O  O532  1  0.822930  0.822836  0.683820  1
  O  O533  1  0.683977  0.822816  0.822844  1
  O  O534  1  0.322947  0.566143  0.927178  1
  O  O535  1  0.927194  0.927170  0.683817  1
  O  O536  1  0.177188  0.816133  0.677177  1
  O  O537  1  0.572950  0.677126  0.933811  1
  O  O538  1  0.933966  0.572874  0.677181  1
  O  O539  1  0.427199  0.566117  0.822828  1
  O  O540  1  0.683968  0.927099  0.927180  1
  O  O541  1  0.822962  0.683834  0.822843  1
  O  O542  1  0.066175  0.822867  0.927169  1
  O  O543  1  0.316168  0.677109  0.677162  1
  O  O544  1  0.177221  0.677168  0.816193  1
  O  O545  1  0.072937  0.572842  0.816205  1
  Si  Si546  1  0.625213  0.536204  0.946912  1
  Si  Si547  1  0.053091  0.875146  0.786236  1
  Si  Si548  1  0.963834  0.696912  0.875206  1
  Si  Si549  1  0.874933  0.786243  0.696909  1
  Si  Si550  1  0.697036  0.874823  0.786241  1
  Si  Si551  1  0.286315  0.553079  0.875193  1
  Si  Si552  1  0.875189  0.963764  0.696901  1
  Si  Si553  1  0.624949  0.713724  0.946904  1
  Si  Si554  1  0.536324  0.625139  0.946881  1
  Si  Si555  1  0.375192  0.553035  0.786237  1
  Si  Si556  1  0.697019  0.963723  0.875186  1
  Si  Si557  1  0.786305  0.874824  0.696887  1
  Si  Si558  1  0.874959  0.696944  0.786250  1
  Si  Si559  1  0.053115  0.786242  0.875176  1
  Si  Si560  1  0.963819  0.875181  0.696885  1
  Si  Si561  1  0.713839  0.624791  0.946894  1
  Si  Si562  1  0.053086  0.874861  0.963779  1
  Si  Si563  1  0.463825  0.553062  0.874820  1
  Si  Si564  1  0.947055  0.624875  0.713781  1
  Si  Si565  1  0.125219  0.713768  0.803118  1
  Si  Si566  1  0.303098  0.625109  0.713773  1
  Si  Si567  1  0.124935  0.536239  0.803125  1
  Si  Si568  1  0.697053  0.875099  0.963783  1
  Si  Si569  1  0.786332  0.696875  0.874837  1
  Si  Si570  1  0.374947  0.553054  0.963774  1
  Si  Si571  1  0.053086  0.963765  0.874839  1
  Si  Si572  1  0.624926  0.946901  0.713794  1
  Si  Si573  1  0.213831  0.625168  0.803128  1
  Si  Si574  1  0.125184  0.803064  0.713775  1
  Si  Si575  1  0.036324  0.624838  0.803134  1
  O  O576  1  0.648298  0.999958  0.851838  1
