# generated using pymatgen
data_SiO2
_symmetry_space_group_name_H-M   'P 1'
_cell_length_a   12.31973932
_cell_length_b   12.32054902
_cell_length_c   25.37533796
_cell_angle_alpha   90.00000000
_cell_angle_beta   90.00000000
_cell_angle_gamma   120.00000000
_symmetry_Int_Tables_number   1
_chemical_formula_structural   SiO2
_chemical_formula_sum   'Si60 O120'
_cell_volume   3335.60062535
_cell_formula_units_Z   60
loop_
 _symmetry_equiv_pos_site_id
 _symmetry_equiv_pos_as_xyz
  1  'x, y, z'
loop_
 _atom_site_type_symbol
 _atom_site_label
 _atom_site_symmetry_multiplicity
 _atom_site_fract_x
 _atom_site_fract_y
 _atom_site_fract_z
 _atom_site_occupancy
  O  O1  1  0.428242  0.213096  0.108214  1
  O  O2  1  0.784862  0.213026  0.108225  1
  O  O3  1  0.784927  0.569922  0.108265  1
  O  O4  1  0.644520  0.644996  0.149879  1
  O  O5  1  0.353024  0.997688  0.149887  1
  O  O6  1  0.000268  0.353389  0.149875  1
  O  O7  1  0.353041  0.353333  0.149877  1
  O  O8  1  0.000370  0.644946  0.149872  1
  O  O9  1  0.644559  0.997619  0.149899  1
  O  O10  1  0.333021  0.311392  0.050176  1
  O  O11  1  0.686608  0.019481  0.050198  1
  O  O12  1  0.978405  0.664967  0.050180  1
  O  O13  1  0.686588  0.665025  0.050183  1
  O  O14  1  0.978388  0.311418  0.050178  1
  O  O15  1  0.332937  0.019537  0.050185  1
  O  O16  1  0.451660  0.546188  0.208243  1
  O  O17  1  0.451734  0.903631  0.208293  1
  O  O18  1  0.094525  0.546265  0.208236  1
  O  O19  1  0.018691  0.330062  0.249517  1
  O  O20  1  0.568404  0.783254  0.192867  1
  O  O21  1  0.214702  0.783330  0.192854  1
  O  O22  1  0.214626  0.429319  0.192814  1
  O  O23  1  0.902265  0.450147  0.092623  1
  O  O24  1  0.547831  0.450218  0.092626  1
  O  O25  1  0.547766  0.095507  0.092596  1
  O  O26  1  0.117919  0.235824  0.008133  1
  O  O27  1  0.762268  0.880080  0.008096  1
  O  O28  1  0.117871  0.880041  0.008102  1
  Si  Si29  1  0.415342  0.332004  0.100220  1
  Si  Si30  1  0.665958  0.081216  0.100226  1
  Si  Si31  1  0.916676  0.582683  0.100231  1
  Si  Si32  1  0.665972  0.582737  0.100239  1
  Si  Si33  1  0.916631  0.331991  0.100217  1
  Si  Si34  1  0.415297  0.081271  0.100217  1
  Si  Si35  1  0.583291  0.665326  0.200143  1
  Si  Si36  1  0.332610  0.916144  0.200161  1
  Si  Si37  1  0.081871  0.414566  0.200131  1
  Si  Si38  1  0.332591  0.414506  0.200130  1
  Si  Si39  1  0.081928  0.665344  0.200141  1
  Si  Si40  1  0.583345  0.916083  0.200168  1
  Si  Si41  1  0.748661  0.998631  0.000327  1
  Si  Si42  1  0.999329  0.747888  0.000310  1
  Si  Si43  1  0.748628  0.747914  0.000310  1
  O  O44  1  0.667822  0.686710  0.249525  1
  O  O45  1  0.311129  0.979271  0.249525  1
  O  O46  1  0.311171  0.329982  0.249517  1
  O  O47  1  0.018717  0.686668  0.249517  1
  O  O48  1  0.667919  0.979214  0.249540  1
  Si  Si49  1  0.250039  0.249344  0.000325  1
  Si  Si50  1  0.250005  0.998628  0.000318  1
  Si  Si51  1  0.999339  0.249372  0.000330  1
  O  O52  1  0.881958  0.764070  0.293594  1
  O  O53  1  0.233551  0.115843  0.293637  1
  O  O54  1  0.882055  0.115920  0.293629  1
  O  O55  1  0.763389  0.880751  0.492957  1
  O  O56  1  0.117134  0.880758  0.492969  1
  O  O57  1  0.117062  0.234340  0.492970  1
  O  O58  1  0.335047  0.019970  0.349354  1
  O  O59  1  0.977851  0.313313  0.349339  1
  O  O60  1  0.684611  0.662727  0.349347  1
  O  O61  1  0.977874  0.662646  0.349338  1
  O  O62  1  0.684704  0.019939  0.349368  1
  O  O63  1  0.335181  0.313252  0.349341  1
  O  O64  1  0.332435  0.312087  0.450241  1
  O  O65  1  0.685639  0.018423  0.450270  1
  O  O66  1  0.979446  0.665430  0.450240  1
  O  O67  1  0.685721  0.665397  0.450250  1
  O  O68  1  0.979430  0.312078  0.450241  1
  O  O69  1  0.332526  0.018423  0.450253  1
  O  O70  1  0.444741  0.221402  0.400367  1
  O  O71  1  0.776428  0.221384  0.400369  1
  O  O72  1  0.776448  0.553146  0.400369  1
  O  O73  1  0.537340  0.074902  0.400680  1
  O  O74  1  0.922860  0.460475  0.400811  1
  O  O75  1  0.537363  0.460504  0.400769  1
  Si  Si76  1  0.250015  0.998569  0.300110  1
  Si  Si77  1  0.748359  0.998587  0.300121  1
  Si  Si78  1  0.999279  0.747687  0.300097  1
  Si  Si79  1  0.250090  0.249612  0.300113  1
  Si  Si80  1  0.999309  0.249672  0.300113  1
  O  O81  1  0.118586  0.237423  0.308718  1
  O  O82  1  0.760689  0.879345  0.308690  1
  O  O83  1  0.118487  0.879270  0.308689  1
  Si  Si84  1  0.414407  0.330879  0.400177  1
  Si  Si85  1  0.666953  0.081569  0.400169  1
  Si  Si86  1  0.916254  0.583449  0.400181  1
  Si  Si87  1  0.666956  0.583464  0.400177  1
  Si  Si88  1  0.916235  0.330883  0.400185  1
  Si  Si89  1  0.414389  0.081586  0.400162  1
  Si  Si90  1  0.748279  0.747745  0.300103  1
  O  O91  1  0.116521  0.233087  0.707020  1
  O  O92  1  0.764812  0.881341  0.707020  1
  O  O93  1  0.116451  0.881380  0.707018  1
  O  O94  1  0.235017  0.116510  0.507678  1
  O  O95  1  0.881276  0.116504  0.507676  1
  O  O96  1  0.881344  0.762917  0.507669  1
  O  O97  1  0.663333  0.977258  0.651311  1
  O  O98  1  0.020577  0.684004  0.651285  1
  O  O99  1  0.313857  0.334540  0.651284  1
  O  O100  1  0.020553  0.334510  0.651288  1
  O  O101  1  0.313793  0.977250  0.651289  1
  O  O102  1  0.663285  0.683975  0.651296  1
  O  O103  1  0.665977  0.685165  0.550391  1
  O  O104  1  0.312739  0.978841  0.550390  1
  O  O105  1  0.018978  0.331866  0.550387  1
  O  O106  1  0.312694  0.331871  0.550383  1
  O  O107  1  0.018971  0.685135  0.550383  1
  O  O108  1  0.665931  0.978831  0.550408  1
  O  O109  1  0.553700  0.775841  0.600289  1
  O  O110  1  0.221975  0.775834  0.600254  1
  O  O111  1  0.221970  0.444113  0.600271  1
  O  O112  1  0.461073  0.922295  0.599920  1
  O  O113  1  0.075504  0.536743  0.599873  1
  O  O114  1  0.461070  0.536762  0.599867  1
  Si  Si115  1  0.748094  0.998626  0.500325  1
  Si  Si116  1  0.250181  0.998670  0.700534  1
  Si  Si117  1  0.999201  0.249475  0.700525  1
  Si  Si118  1  0.748355  0.747611  0.700529  1
  O  O119  1  0.879903  0.759898  0.691935  1
  O  O120  1  0.237913  0.117939  0.691944  1
  O  O121  1  0.879966  0.117901  0.691943  1
  Si  Si122  1  0.584023  0.666353  0.600466  1
  Si  Si123  1  0.331453  0.915642  0.600464  1
  Si  Si124  1  0.082155  0.413786  0.600462  1
  Si  Si125  1  0.331457  0.413789  0.600458  1
  Si  Si126  1  0.082158  0.666348  0.600448  1
  Si  Si127  1  0.584027  0.915649  0.600489  1
  Si  Si128  1  0.250241  0.249502  0.700528  1
  Si  Si129  1  0.748410  0.998649  0.700539  1
  Si  Si130  1  0.999183  0.747641  0.700526  1
  Si  Si131  1  0.999187  0.249659  0.500318  1
  Si  Si132  1  0.250258  0.249658  0.500318  1
  Si  Si133  1  0.748151  0.747603  0.500317  1
  Si  Si134  1  0.250316  0.998635  0.500323  1
  Si  Si135  1  0.999222  0.747601  0.500319  1
  O  O136  1  0.570484  0.784204  0.892410  1
  O  O137  1  0.213772  0.784197  0.892415  1
  O  O138  1  0.213721  0.427392  0.892391  1
  O  O139  1  0.354061  0.352302  0.850755  1
  O  O140  1  0.645611  0.999644  0.850770  1
  O  O141  1  0.998345  0.643888  0.850752  1
  O  O142  1  0.645581  0.643868  0.850758  1
  O  O143  1  0.998277  0.352308  0.850754  1
  O  O144  1  0.354036  0.999608  0.850757  1
  O  O145  1  0.665656  0.685870  0.950456  1
  O  O146  1  0.312056  0.977737  0.950456  1
  O  O147  1  0.020226  0.332262  0.950454  1
  O  O148  1  0.312066  0.332249  0.950453  1
  O  O149  1  0.020251  0.685849  0.950454  1
  O  O150  1  0.665711  0.977722  0.950466  1
  O  O151  1  0.546899  0.451003  0.792389  1
  O  O152  1  0.546843  0.093693  0.792373  1
  O  O153  1  0.904168  0.451041  0.792385  1
  O  O154  1  0.979834  0.310524  0.751111  1
  O  O155  1  0.330617  0.018013  0.751115  1
  O  O156  1  0.430058  0.213954  0.807785  1
  O  O157  1  0.783895  0.213991  0.807793  1
  O  O158  1  0.783950  0.567868  0.807807  1
  O  O159  1  0.096305  0.547081  0.908012  1
  O  O160  1  0.450828  0.547082  0.908018  1
  O  O161  1  0.450876  0.901704  0.908043  1
  O  O162  1  0.880748  0.761442  0.992508  1
  O  O163  1  0.236408  0.117181  0.992537  1
  O  O164  1  0.880791  0.117211  0.992543  1
  Si  Si165  1  0.583327  0.665264  0.900413  1
  Si  Si166  1  0.332678  0.916002  0.900423  1
  Si  Si167  1  0.081942  0.414566  0.900407  1
  Si  Si168  1  0.332668  0.414561  0.900409  1
  Si  Si169  1  0.081980  0.665257  0.900411  1
  Si  Si170  1  0.583367  0.916001  0.900426  1
  Si  Si171  1  0.415229  0.331908  0.800488  1
  Si  Si172  1  0.665969  0.081184  0.800499  1
  Si  Si173  1  0.916743  0.582703  0.800496  1
  Si  Si174  1  0.665977  0.582675  0.800500  1
  Si  Si175  1  0.916701  0.331930  0.800493  1
  Si  Si176  1  0.415191  0.081158  0.800486  1
  O  O177  1  0.330689  0.310548  0.751110  1
  O  O178  1  0.687383  0.018023  0.751131  1
  O  O179  1  0.979857  0.667230  0.751110  1
  O  O180  1  0.687328  0.667194  0.751118  1
