# generated using pymatgen
data_SiO2
_symmetry_space_group_name_H-M   'P 1'
_cell_length_a   18.57013784
_cell_length_b   14.03621034
_cell_length_c   7.42180539
_cell_angle_alpha   90.00000000
_cell_angle_beta   90.00000000
_cell_angle_gamma   90.00000000
_symmetry_Int_Tables_number   1
_chemical_formula_structural   SiO2
_chemical_formula_sum   'Si36 O72'
_cell_volume   1934.5259415
_cell_formula_units_Z   36
loop_
 _symmetry_equiv_pos_site_id
 _symmetry_equiv_pos_as_xyz
  1  'x, y, z'
loop_
 _atom_site_type_symbol
 _atom_site_label
 _atom_site_symmetry_multiplicity
 _atom_site_fract_x
 _atom_site_fract_y
 _atom_site_fract_z
 _atom_site_occupancy
  O  O1  1  0.313766  0.093831  0.247971  1
  O  O2  1  0.813746  0.593858  0.747832  1
  O  O3  1  0.686358  0.093831  0.247873  1
  O  O4  1  0.186360  0.593859  0.747933  1
  O  O5  1  0.314313  0.906230  0.252519  1
  O  O6  1  0.814325  0.406259  0.752434  1
  O  O7  1  0.685810  0.906231  0.252413  1
  O  O8  1  0.185782  0.406263  0.752541  1
  O  O9  1  0.685745  0.906252  0.747743  1
  O  O10  1  0.185775  0.406228  0.247871  1
  O  O11  1  0.314362  0.906255  0.747847  1
  O  O12  1  0.814351  0.406229  0.247770  1
  O  O13  1  0.686332  0.093842  0.752355  1
  O  O14  1  0.186321  0.593832  0.252423  1
  O  O15  1  0.313779  0.093856  0.752455  1
  O  O16  1  0.813803  0.593833  0.252322  1
  O  O17  1  0.381821  0.250020  0.330723  1
  O  O18  1  0.881776  0.750054  0.830495  1
  O  O19  1  0.618273  0.250000  0.330631  1
  O  O20  1  0.118364  0.750077  0.830583  1
  O  O21  1  0.381993  0.748730  0.331370  1
  O  O22  1  0.882058  0.248821  0.831388  1
  O  O23  1  0.618092  0.748761  0.331285  1
  O  O24  1  0.118059  0.248805  0.831478  1
  O  O25  1  0.618126  0.748711  0.668854  1
  O  O26  1  0.118177  0.248663  0.169060  1
  O  O27  1  0.382018  0.748742  0.668943  1
  O  O28  1  0.881915  0.248642  0.168961  1
  O  O29  1  0.618545  0.250193  0.669757  1
  O  O30  1  0.118334  0.750063  0.169727  1
  O  O31  1  0.381790  0.250129  0.669808  1
  O  O32  1  0.881753  0.750085  0.169635  1
  O  O33  1  0.335320  0.217642  0.000293  1
  O  O34  1  0.835319  0.717643  0.500072  1
  O  O35  1  0.664797  0.217636  0.000221  1
  O  O36  1  0.164794  0.717644  0.500161  1
  O  O37  1  0.340176  0.787121  0.000160  1
  O  O38  1  0.840178  0.287118  0.500175  1
  O  O39  1  0.659937  0.787119  0.000072  1
  O  O40  1  0.159939  0.287121  0.500262  1
  O  O41  1  0.249435  0.249521  0.256481  1
  O  O42  1  0.749392  0.749520  0.756183  1
  O  O43  1  0.750657  0.249558  0.256428  1
  O  O44  1  0.250755  0.749483  0.756219  1
  O  O45  1  0.250733  0.749440  0.244039  1
  O  O46  1  0.750697  0.249432  0.744075  1
  O  O47  1  0.749349  0.749395  0.243999  1
  O  O48  1  0.249278  0.249406  0.744326  1
  O  O49  1  0.106498  0.092710  0.000114  1
  O  O50  1  0.606499  0.592708  0.500024  1
  O  O51  1  0.893615  0.092714  0.999982  1
  O  O52  1  0.393617  0.592705  0.500165  1
  O  O53  1  0.106105  0.905614  0.000167  1
  O  O54  1  0.606099  0.405618  0.500011  1
  O  O55  1  0.894010  0.905615  0.000053  1
  O  O56  1  0.394015  0.405613  0.500156  1
  O  O57  1  0.000057  0.210963  0.000460  1
  O  O58  1  0.500055  0.710963  0.500112  1
  O  O59  1  0.000056  0.786672  0.000086  1
  O  O60  1  0.500061  0.286655  0.500414  1
  O  O61  1  0.202298  0.998939  0.170070  1
  O  O62  1  0.702296  0.498928  0.669957  1
  O  O63  1  0.797824  0.998944  0.169966  1
  O  O64  1  0.297812  0.498924  0.670055  1
  O  O65  1  0.797781  0.998921  0.830254  1
  O  O66  1  0.297792  0.498936  0.330342  1
  O  O67  1  0.202330  0.998923  0.830352  1
  O  O68  1  0.702335  0.498938  0.330244  1
  O  O69  1  0.252376  0.001064  0.500198  1
  O  O70  1  0.752379  0.501062  0.000096  1
  O  O71  1  0.747741  0.001060  0.500099  1
  O  O72  1  0.247737  0.501064  0.000195  1
  Si  Si73  1  0.323129  0.203072  0.207716  1
  Si  Si74  1  0.823099  0.703098  0.707487  1
  Si  Si75  1  0.676976  0.203073  0.207647  1
  Si  Si76  1  0.177026  0.703101  0.707570  1
  Si  Si77  1  0.324837  0.797799  0.207310  1
  Si  Si78  1  0.824875  0.297823  0.707324  1
  Si  Si79  1  0.675264  0.797798  0.207228  1
  Si  Si80  1  0.175217  0.297833  0.707411  1
  Si  Si81  1  0.675258  0.797806  0.792919  1
  Si  Si82  1  0.175292  0.297788  0.293116  1
  Si  Si83  1  0.324865  0.797814  0.793001  1
  Si  Si84  1  0.824817  0.297789  0.293035  1
  Si  Si85  1  0.677045  0.203098  0.792777  1
  Si  Si86  1  0.177000  0.703087  0.292738  1
  Si  Si87  1  0.323065  0.203137  0.792799  1
  Si  Si88  1  0.823103  0.703087  0.292656  1
  Si  Si89  1  0.083493  0.199927  0.000283  1
  Si  Si90  1  0.583490  0.699924  0.500070  1
  Si  Si91  1  0.916620  0.199934  0.000188  1
  Si  Si92  1  0.416623  0.699924  0.500147  1
  Si  Si93  1  0.083511  0.798181  0.000142  1
  Si  Si94  1  0.583510  0.298193  0.500204  1
  Si  Si95  1  0.916604  0.798180  0.000069  1
  Si  Si96  1  0.416623  0.298194  0.500261  1
  Si  Si97  1  0.271051  0.000074  0.292886  1
  Si  Si98  1  0.771048  0.500094  0.792777  1
  Si  Si99  1  0.729070  0.000072  0.292783  1
  Si  Si100  1  0.229061  0.500099  0.792881  1
  Si  Si101  1  0.729036  0.000076  0.707403  1
  Si  Si102  1  0.229041  0.500076  0.207506  1
  Si  Si103  1  0.271075  0.000088  0.707508  1
  Si  Si104  1  0.771083  0.500075  0.207405  1
  Si  Si105  1  0.152135  0.999012  0.000178  1
  Si  Si106  1  0.652133  0.499014  0.500061  1
  Si  Si107  1  0.847984  0.999015  0.000066  1
  Si  Si108  1  0.347982  0.499011  0.500178  1
