# generated using pymatgen
data_SiO2
_symmetry_space_group_name_H-M   'P 1'
_cell_length_a   8.73749281
_cell_length_b   11.77940740
_cell_length_c   16.95225116
_cell_angle_alpha   90.00000000
_cell_angle_beta   90.00000000
_cell_angle_gamma   90.00000000
_symmetry_Int_Tables_number   1
_chemical_formula_structural   SiO2
_chemical_formula_sum   'Si32 O64'
_cell_volume   1744.76785666
_cell_formula_units_Z   32
loop_
 _symmetry_equiv_pos_site_id
 _symmetry_equiv_pos_as_xyz
  1  'x, y, z'
loop_
 _atom_site_type_symbol
 _atom_site_label
 _atom_site_symmetry_multiplicity
 _atom_site_fract_x
 _atom_site_fract_y
 _atom_site_fract_z
 _atom_site_occupancy
  O  O1  1  0.735809  0.987141  0.827028  1
  O  O2  1  0.235810  0.487142  0.827027  1
  O  O3  1  0.735811  0.012532  0.173037  1
  O  O4  1  0.235809  0.512535  0.173036  1
  O  O5  1  0.264397  0.987142  0.673037  1
  O  O6  1  0.764398  0.487140  0.673036  1
  O  O7  1  0.264398  0.012534  0.327028  1
  O  O8  1  0.764397  0.512533  0.327027  1
  O  O9  1  0.829017  0.103855  0.701951  1
  O  O10  1  0.329022  0.603857  0.701951  1
  O  O11  1  0.829022  0.895817  0.298112  1
  O  O12  1  0.329017  0.395820  0.298112  1
  O  O13  1  0.171186  0.103857  0.798112  1
  O  O14  1  0.671191  0.603855  0.798112  1
  O  O15  1  0.171191  0.895820  0.201952  1
  O  O16  1  0.671186  0.395818  0.201951  1
  O  O17  1  0.626021  0.185714  0.790726  1
  O  O18  1  0.126027  0.685717  0.790726  1
  O  O19  1  0.626027  0.813958  0.209337  1
  O  O20  1  0.126021  0.313961  0.209337  1
  O  O21  1  0.374181  0.185717  0.709337  1
  O  O22  1  0.874187  0.685714  0.709337  1
  O  O23  1  0.374187  0.813961  0.290726  1
  O  O24  1  0.874181  0.313958  0.290726  1
  O  O25  1  0.911157  0.166247  0.838031  1
  O  O26  1  0.411163  0.666246  0.838031  1
  O  O27  1  0.911163  0.833429  0.162032  1
  O  O28  1  0.411157  0.333428  0.162032  1
  O  O29  1  0.089044  0.166246  0.662032  1
  O  O30  1  0.589050  0.666247  0.662032  1
  O  O31  1  0.089050  0.833428  0.338031  1
  O  O32  1  0.589044  0.333429  0.338031  1
  O  O33  1  0.867342  0.081048  0.050189  1
  O  O34  1  0.367346  0.581050  0.050189  1
  O  O35  1  0.867346  0.918625  0.949874  1
  O  O36  1  0.367342  0.418626  0.949874  1
  O  O37  1  0.132861  0.081049  0.449874  1
  O  O38  1  0.632866  0.581048  0.449874  1
  O  O39  1  0.132866  0.918627  0.550189  1
  O  O40  1  0.632862  0.418625  0.550189  1
  O  O41  1  0.659901  0.218167  0.116729  1
  O  O42  1  0.159907  0.718170  0.116728  1
  O  O43  1  0.659907  0.781505  0.883335  1
  O  O44  1  0.159901  0.281508  0.883334  1
  O  O45  1  0.340300  0.218170  0.383335  1
  O  O46  1  0.840306  0.718167  0.383334  1
  O  O47  1  0.340306  0.781508  0.616729  1
  O  O48  1  0.840300  0.281505  0.616728  1
  O  O49  1  0.918264  0.167957  0.184045  1
  O  O50  1  0.418266  0.667957  0.184046  1
  O  O51  1  0.918266  0.831718  0.816017  1
  O  O52  1  0.418264  0.331718  0.816019  1
  O  O53  1  0.081942  0.167957  0.316017  1
  O  O54  1  0.581944  0.667957  0.316019  1
  O  O55  1  0.081944  0.831718  0.684045  1
  O  O56  1  0.581942  0.331718  0.684046  1
  O  O57  1  0.572348  0.421672  0.057237  1
  O  O58  1  0.072351  0.921676  0.057237  1
  O  O59  1  0.572352  0.577999  0.942826  1
  O  O60  1  0.072348  0.078003  0.942826  1
  O  O61  1  0.427856  0.421676  0.442826  1
  O  O62  1  0.927860  0.921672  0.442826  1
  O  O63  1  0.427859  0.578003  0.557237  1
  O  O64  1  0.927857  0.077999  0.557237  1
  Si  Si65  1  0.773227  0.108736  0.791163  1
  Si  Si66  1  0.273232  0.608738  0.791162  1
  Si  Si67  1  0.773232  0.890937  0.208901  1
  Si  Si68  1  0.273227  0.390939  0.208901  1
  Si  Si69  1  0.226976  0.108738  0.708901  1
  Si  Si70  1  0.726981  0.608736  0.708901  1
  Si  Si71  1  0.226981  0.890939  0.291163  1
  Si  Si72  1  0.726976  0.390937  0.291162  1
  Si  Si73  1  0.787811  0.123722  0.128044  1
  Si  Si74  1  0.287814  0.623724  0.128045  1
  Si  Si75  1  0.787814  0.875951  0.872019  1
  Si  Si76  1  0.287810  0.375953  0.872019  1
  Si  Si77  1  0.212394  0.123724  0.372019  1
  Si  Si78  1  0.712397  0.623722  0.372019  1
  Si  Si79  1  0.212397  0.875952  0.628045  1
  Si  Si80  1  0.712394  0.375951  0.628045  1
  Si  Si81  1  0.582372  0.338554  0.130729  1
  Si  Si82  1  0.082377  0.838557  0.130729  1
  Si  Si83  1  0.582378  0.661119  0.869334  1
  Si  Si84  1  0.082372  0.161121  0.869334  1
  Si  Si85  1  0.417830  0.338556  0.369335  1
  Si  Si86  1  0.917836  0.838554  0.369334  1
  Si  Si87  1  0.417835  0.661121  0.630730  1
  Si  Si88  1  0.917830  0.161118  0.630729  1
  Si  Si89  1  0.500102  0.261228  0.750032  1
  Si  Si90  1  0.000105  0.761228  0.750031  1
  Si  Si91  1  0.500106  0.738447  0.250032  1
  Si  Si92  1  0.000102  0.238446  0.250031  1
  Si  Si93  1  0.973905  0.999838  0.000032  1
  Si  Si94  1  0.473905  0.499837  0.000032  1
  Si  Si95  1  0.026303  0.999837  0.500032  1
  Si  Si96  1  0.526303  0.499838  0.500031  1
