# generated using pymatgen
data_SiO2
_symmetry_space_group_name_H-M   'P 1'
_cell_length_a   9.65481529
_cell_length_b   9.65333091
_cell_length_c   10.14688585
_cell_angle_alpha   90.00000000
_cell_angle_beta   90.00000000
_cell_angle_gamma   90.00000000
_symmetry_Int_Tables_number   1
_chemical_formula_structural   SiO2
_chemical_formula_sum   'Si16 O32'
_cell_volume   945.701196104
_cell_formula_units_Z   16
loop_
 _symmetry_equiv_pos_site_id
 _symmetry_equiv_pos_as_xyz
  1  'x, y, z'
loop_
 _atom_site_type_symbol
 _atom_site_label
 _atom_site_symmetry_multiplicity
 _atom_site_fract_x
 _atom_site_fract_y
 _atom_site_fract_z
 _atom_site_occupancy
  O  O1  1  0.000003  0.570706  0.154401  1
  O  O2  1  0.499929  0.070616  0.654552  1
  O  O3  1  0.179132  0.249920  0.904428  1
  O  O4  1  0.679178  0.749775  0.404505  1
  O  O5  1  0.499944  0.429002  0.654401  1
  O  O6  1  0.000018  0.929092  0.154552  1
  O  O7  1  0.320814  0.749788  0.404428  1
  O  O8  1  0.820768  0.249934  0.904505  1
  O  O9  1  0.999943  0.429092  0.845303  1
  O  O10  1  0.500017  0.929002  0.345454  1
  O  O11  1  0.820814  0.749933  0.095427  1
  O  O12  1  0.320769  0.249788  0.595350  1
  O  O13  1  0.500003  0.570616  0.345303  1
  O  O14  1  0.999929  0.070706  0.845455  1
  O  O15  1  0.679132  0.249775  0.595427  1
  O  O16  1  0.179178  0.749921  0.095351  1
  O  O17  1  0.250016  0.554999  0.249810  1
  O  O18  1  0.749909  0.054999  0.750069  1
  O  O19  1  0.194821  0.499949  0.999799  1
  O  O20  1  0.694820  0.999737  0.500079  1
  O  O21  1  0.249933  0.444709  0.749807  1
  O  O22  1  0.750035  0.944710  0.250071  1
  O  O23  1  0.305126  0.499758  0.499800  1
  O  O24  1  0.805125  0.999972  0.000078  1
  O  O25  1  0.750019  0.554999  0.249887  1
  O  O26  1  0.249906  0.054999  0.749945  1
  O  O27  1  0.805126  0.499974  0.999858  1
  O  O28  1  0.305126  0.999756  0.499974  1
  O  O29  1  0.749926  0.444710  0.749885  1
  O  O30  1  0.250042  0.944710  0.249947  1
  O  O31  1  0.694820  0.499734  0.499859  1
  O  O32  1  0.194821  0.999952  0.999975  1
  Si  Si33  1  0.159370  0.590520  0.124842  1
  Si  Si34  1  0.659313  0.090400  0.625044  1
  Si  Si35  1  0.159321  0.409298  0.874824  1
  Si  Si36  1  0.659383  0.909178  0.375025  1
  Si  Si37  1  0.340573  0.409189  0.624843  1
  Si  Si38  1  0.840635  0.909306  0.125044  1
  Si  Si39  1  0.340623  0.590412  0.374823  1
  Si  Si40  1  0.840567  0.090528  0.875026  1
  Si  Si41  1  0.840626  0.590529  0.124898  1
  Si  Si42  1  0.340564  0.090412  0.624964  1
  Si  Si43  1  0.840576  0.409308  0.874881  1
  Si  Si44  1  0.340634  0.909187  0.374943  1
  Si  Si45  1  0.659321  0.409178  0.624898  1
  Si  Si46  1  0.159381  0.909297  0.124963  1
  Si  Si47  1  0.659373  0.590403  0.374877  1
  Si  Si48  1  0.159310  0.090519  0.874946  1
