# generated using pymatgen
data_SiO2
_symmetry_space_group_name_H-M   'P 1'
_cell_length_a   12.27782727
_cell_length_b   12.26957123
_cell_length_c   40.91417750
_cell_angle_alpha   90.00000000
_cell_angle_beta   90.00000000
_cell_angle_gamma   120.00000000
_symmetry_Int_Tables_number   1
_chemical_formula_structural   SiO2
_chemical_formula_sum   'Si96 O192'
_cell_volume   5337.71476105
_cell_formula_units_Z   96
loop_
 _symmetry_equiv_pos_site_id
 _symmetry_equiv_pos_as_xyz
  1  'x, y, z'
loop_
 _atom_site_type_symbol
 _atom_site_label
 _atom_site_symmetry_multiplicity
 _atom_site_fract_x
 _atom_site_fract_y
 _atom_site_fract_z
 _atom_site_occupancy
  O  O1  1  0.313678  0.978291  0.030872  1
  O  O2  1  0.019910  0.334261  0.031101  1
  O  O3  1  0.665285  0.686389  0.030840  1
  O  O4  1  0.019471  0.686247  0.030931  1
  O  O5  1  0.663189  0.978370  0.030909  1
  O  O6  1  0.312899  0.334797  0.030938  1
  O  O7  1  0.237342  0.118562  0.004939  1
  O  O8  1  0.879300  0.118381  0.004868  1
  O  O9  1  0.881036  0.763769  0.004446  1
  O  O10  1  0.649859  0.645156  0.092782  1
  O  O11  1  0.354082  0.004046  0.092795  1
  O  O12  1  0.995939  0.350573  0.093034  1
  O  O13  1  0.353649  0.350460  0.092799  1
  O  O14  1  0.994162  0.644732  0.092863  1
  O  O15  1  0.649055  0.003835  0.092910  1
  O  O16  1  0.572903  0.786152  0.067906  1
  O  O17  1  0.211911  0.786083  0.067919  1
  O  O18  1  0.213417  0.428222  0.067734  1
  O  O19  1  0.450928  0.549146  0.058486  1
  O  O20  1  0.449361  0.899959  0.058895  1
  O  O21  1  0.096772  0.548917  0.058502  1
  O  O22  1  0.555011  0.110501  0.125479  1
  O  O23  1  0.889239  0.444315  0.125715  1
  O  O24  1  0.554390  0.444569  0.125456  1
  O  O25  1  0.349371  0.996695  0.155425  1
  O  O26  1  0.003355  0.353068  0.155724  1
  O  O27  1  0.646013  0.649963  0.155517  1
  O  O28  1  0.003296  0.650150  0.155562  1
  O  O29  1  0.646112  0.996375  0.155614  1
  O  O30  1  0.349021  0.352796  0.155453  1
  O  O31  1  0.411205  0.205787  0.126361  1
  O  O32  1  0.794069  0.205445  0.126578  1
  O  O33  1  0.793153  0.587128  0.126829  1
  Si  Si34  1  0.585368  0.666637  0.062361  1
  Si  Si35  1  0.332191  0.917590  0.062471  1
  Si  Si36  1  0.080945  0.414938  0.062467  1
  Si  Si37  1  0.332700  0.415196  0.062358  1
  Si  Si38  1  0.079951  0.666492  0.062399  1
  Si  Si39  1  0.584198  0.917719  0.062536  1
  Si  Si40  1  0.414927  0.080821  0.124761  1
  Si  Si41  1  0.919146  0.334077  0.125033  1
  Si  Si42  1  0.665071  0.584493  0.124892  1
  Si  Si43  1  0.918516  0.584281  0.125006  1
  Si  Si44  1  0.665273  0.080595  0.124910  1
  Si  Si45  1  0.414370  0.334205  0.124747  1
  Si  Si46  1  0.998695  0.250877  0.000206  1
  Si  Si47  1  0.250410  0.251015  0.000136  1
  Si  Si48  1  0.251525  0.999875  0.000029  1
  O  O49  1  0.555203  0.110639  0.250013  1
  O  O50  1  0.888281  0.444381  0.250054  1
  O  O51  1  0.555826  0.444535  0.249988  1
  O  O52  1  0.351985  0.999493  0.281339  1
  O  O53  1  0.996418  0.349832  0.281725  1
  O  O54  1  0.648737  0.647030  0.281614  1
  O  O55  1  0.998229  0.647266  0.281559  1
  O  O56  1  0.649882  0.003065  0.281762  1
  O  O57  1  0.352576  0.352579  0.281361  1
  O  O58  1  0.352797  0.003091  0.218294  1
  O  O59  1  0.999669  0.352597  0.218690  1
  O  O60  1  0.648220  0.647541  0.218536  1
  O  O61  1  0.998682  0.647076  0.218501  1
  O  O62  1  0.647269  0.999611  0.218655  1
  O  O63  1  0.353093  0.349818  0.218340  1
  O  O64  1  0.413634  0.206737  0.251239  1
  O  O65  1  0.792921  0.206555  0.248835  1
  O  O66  1  0.794092  0.588492  0.249768  1
  O  O67  1  0.444308  0.554400  0.187551  1
  O  O68  1  0.443850  0.889535  0.187459  1
  O  O69  1  0.111269  0.555873  0.187381  1
  O  O70  1  0.444349  0.556000  0.312536  1
  O  O71  1  0.445101  0.889259  0.312551  1
  O  O72  1  0.109325  0.554356  0.312535  1
  O  O73  1  0.584491  0.792197  0.188533  1
  O  O74  1  0.206231  0.793973  0.188701  1
  O  O75  1  0.206806  0.413238  0.188824  1
  O  O76  1  0.587533  0.794018  0.311254  1
  O  O77  1  0.206993  0.792052  0.311451  1
  O  O78  1  0.206132  0.413670  0.311196  1
  Si  Si79  1  0.584210  0.665163  0.187425  1
  Si  Si80  1  0.333944  0.919989  0.187396  1
  Si  Si81  1  0.081084  0.415496  0.187508  1
  Si  Si82  1  0.334132  0.414179  0.187479  1
  Si  Si83  1  0.080696  0.665786  0.187423  1
  Si  Si84  1  0.583795  0.918740  0.187411  1
  Si  Si85  1  0.584850  0.665807  0.312575  1
  Si  Si86  1  0.334344  0.918482  0.312566  1
  Si  Si87  1  0.079553  0.414225  0.312608  1
  Si  Si88  1  0.334014  0.415712  0.312496  1
  Si  Si89  1  0.080157  0.665111  0.312627  1
  Si  Si90  1  0.585519  0.919879  0.312639  1
  Si  Si91  1  0.415003  0.080580  0.250105  1
  Si  Si92  1  0.918722  0.334393  0.249942  1
  Si  Si93  1  0.665544  0.585028  0.249997  1
  Si  Si94  1  0.919115  0.584910  0.249992  1
  Si  Si95  1  0.665307  0.080516  0.249932  1
  Si  Si96  1  0.415464  0.334490  0.250116  1
  O  O97  1  0.313351  0.978789  0.469005  1
  O  O98  1  0.020263  0.335030  0.469207  1
  O  O99  1  0.664846  0.686255  0.469098  1
  O  O100  1  0.019680  0.686106  0.469129  1
  O  O101  1  0.662970  0.978142  0.469196  1
  O  O102  1  0.313064  0.334709  0.469072  1
  O  O103  1  0.237298  0.118779  0.495155  1
  O  O104  1  0.879424  0.118609  0.495166  1
  O  O105  1  0.880765  0.763309  0.495422  1
  O  O106  1  0.649294  0.644957  0.407203  1
  O  O107  1  0.353568  0.003993  0.407013  1
  O  O108  1  0.995231  0.350282  0.407296  1
  O  O109  1  0.353301  0.350032  0.407071  1
  O  O110  1  0.994066  0.644786  0.407212  1
  O  O111  1  0.648701  0.004059  0.407296  1
  O  O112  1  0.572205  0.785970  0.432125  1
  O  O113  1  0.211870  0.786358  0.432058  1
  O  O114  1  0.213072  0.427513  0.432285  1
  O  O115  1  0.450447  0.548779  0.441434  1
  O  O116  1  0.449092  0.900346  0.441177  1
  O  O117  1  0.097362  0.549245  0.441494  1
  O  O118  1  0.554554  0.110449  0.374493  1
  O  O119  1  0.889008  0.444358  0.374450  1
  O  O120  1  0.554006  0.444354  0.374457  1
  O  O121  1  0.349537  0.996282  0.344323  1
  O  O122  1  0.003203  0.352756  0.344626  1
  O  O123  1  0.646018  0.650133  0.344537  1
  O  O124  1  0.003068  0.649990  0.344517  1
  O  O125  1  0.646453  0.996350  0.344664  1
  O  O126  1  0.349010  0.353395  0.344341  1
  O  O127  1  0.410587  0.205553  0.373325  1
  O  O128  1  0.793607  0.205588  0.373619  1
  O  O129  1  0.792890  0.587100  0.373258  1
  Si  Si130  1  0.584771  0.666456  0.437607  1
  Si  Si131  1  0.331993  0.918017  0.437436  1
  Si  Si132  1  0.081008  0.414984  0.437719  1
  Si  Si133  1  0.332483  0.414652  0.437572  1
  Si  Si134  1  0.080116  0.666584  0.437623  1
  Si  Si135  1  0.583746  0.917621  0.437598  1
  Si  Si136  1  0.414413  0.080622  0.375016  1
  Si  Si137  1  0.918790  0.334050  0.375249  1
  Si  Si138  1  0.664703  0.584287  0.375124  1
  Si  Si139  1  0.918284  0.584311  0.375091  1
  Si  Si140  1  0.664906  0.080679  0.375280  1
  Si  Si141  1  0.413917  0.334069  0.375047  1
  Si  Si142  1  0.250549  0.251282  0.499940  1
  Si  Si143  1  0.251290  0.999966  0.499931  1
  Si  Si144  1  0.998810  0.251041  0.499989  1
  O  O145  1  0.684510  0.021373  0.530902  1
  O  O146  1  0.978130  0.665232  0.530952  1
  O  O147  1  0.333009  0.313701  0.530965  1
  O  O148  1  0.978697  0.313282  0.531039  1
  O  O149  1  0.334517  0.021295  0.530860  1
  O  O150  1  0.685061  0.664631  0.530860  1
  O  O151  1  0.760759  0.881064  0.504926  1
  O  O152  1  0.118457  0.881237  0.504766  1
  O  O153  1  0.117245  0.236251  0.504535  1
  O  O154  1  0.348508  0.354826  0.592934  1
  O  O155  1  0.644130  0.996325  0.592812  1
  O  O156  1  0.002692  0.649302  0.592876  1
  O  O157  1  0.644446  0.649465  0.592736  1
  O  O158  1  0.003333  0.354372  0.593014  1
  O  O159  1  0.348731  0.995560  0.592830  1
  O  O160  1  0.424937  0.213454  0.567971  1
  O  O161  1  0.785808  0.213906  0.567825  1
  O  O162  1  0.784977  0.571797  0.567719  1
  O  O163  1  0.547420  0.450523  0.558602  1
  O  O164  1  0.548329  0.099592  0.558772  1
  O  O165  1  0.901552  0.450886  0.558472  1
  O  O166  1  0.443294  0.889598  0.625506  1
  O  O167  1  0.108576  0.554914  0.625710  1
  O  O168  1  0.443722  0.555587  0.625481  1
  O  O169  1  0.648947  0.003165  0.655469  1
  O  O170  1  0.994621  0.646608  0.655540  1
  O  O171  1  0.352452  0.350411  0.655654  1
  O  O172  1  0.994479  0.349433  0.655739  1
  O  O173  1  0.351691  0.003460  0.655524  1
  O  O174  1  0.649437  0.647778  0.655379  1
  O  O175  1  0.587102  0.794391  0.626214  1
  O  O176  1  0.204297  0.793886  0.626584  1
  O  O177  1  0.204693  0.412317  0.626916  1
  Si  Si178  1  0.412852  0.333231  0.562496  1
  Si  Si179  1  0.665684  0.082294  0.562411  1
  Si  Si180  1  0.917323  0.584849  0.562372  1
  Si  Si181  1  0.665553  0.584607  0.562345  1
  Si  Si182  1  0.918090  0.333179  0.562456  1
  Si  Si183  1  0.413534  0.081882  0.562488  1
  Si  Si184  1  0.583372  0.919350  0.624750  1
  Si  Si185  1  0.079081  0.665409  0.624928  1
  Si  Si186  1  0.333105  0.415579  0.625002  1
  Si  Si187  1  0.079178  0.414922  0.625132  1
  Si  Si188  1  0.332765  0.919078  0.624866  1
  Si  Si189  1  0.583783  0.665903  0.624670  1
  Si  Si190  1  0.747588  0.748572  0.500077  1
  Si  Si191  1  0.999246  0.748637  0.500070  1
  Si  Si192  1  0.746628  0.999808  0.500052  1
  O  O193  1  0.441731  0.889027  0.749979  1
  O  O194  1  0.109934  0.556028  0.750067  1
  O  O195  1  0.442882  0.554889  0.750014  1
  O  O196  1  0.644882  0.999574  0.781423  1
  O  O197  1  0.999391  0.648513  0.781475  1
  O  O198  1  0.347762  0.352752  0.781798  1
  O  O199  1  0.002161  0.353196  0.781738  1
  O  O200  1  0.349100  0.998747  0.781605  1
  O  O201  1  0.646130  0.647754  0.781346  1
  O  O202  1  0.644707  0.996140  0.718378  1
  O  O203  1  0.999764  0.648280  0.718436  1
  O  O204  1  0.351255  0.351841  0.718699  1
  O  O205  1  0.998180  0.352725  0.718715  1
  O  O206  1  0.349506  0.999625  0.718521  1
  O  O207  1  0.645329  0.650946  0.718271  1
  O  O208  1  0.582658  0.792270  0.751355  1
  O  O209  1  0.203640  0.794618  0.749920  1
  O  O210  1  0.205334  0.413606  0.748642  1
  O  O211  1  0.554716  0.446281  0.687471  1
  O  O212  1  0.553607  0.109320  0.687523  1
  O  O213  1  0.886509  0.444262  0.687388  1
  O  O214  1  0.552754  0.444095  0.812473  1
  O  O215  1  0.553304  0.111352  0.812629  1
  O  O216  1  0.888617  0.444415  0.812403  1
  O  O217  1  0.415128  0.208299  0.688378  1
  O  O218  1  0.791143  0.205942  0.688860  1
  O  O219  1  0.792152  0.588116  0.688820  1
  O  O220  1  0.410180  0.206219  0.811482  1
  O  O221  1  0.791522  0.207016  0.811195  1
  O  O222  1  0.790608  0.584147  0.811331  1
  Si  Si223  1  0.414983  0.335134  0.687409  1
  Si  Si224  1  0.663844  0.079465  0.687494  1
  Si  Si225  1  0.917374  0.584882  0.687425  1
  Si  Si226  1  0.664567  0.586659  0.687425  1
  Si  Si227  1  0.916752  0.334092  0.687531  1
  Si  Si228  1  0.413948  0.080808  0.687364  1
  Si  Si229  1  0.412393  0.334213  0.812670  1
  Si  Si230  1  0.663545  0.081294  0.812561  1
  Si  Si231  1  0.917537  0.584262  0.812539  1
  Si  Si232  1  0.663676  0.584017  0.812522  1
  Si  Si233  1  0.918363  0.334056  0.812535  1
  Si  Si234  1  0.412820  0.080658  0.812683  1
  Si  Si235  1  0.581846  0.918704  0.750168  1
  Si  Si236  1  0.078964  0.665628  0.749984  1
  Si  Si237  1  0.332714  0.414739  0.749901  1
  Si  Si238  1  0.079509  0.415571  0.749909  1
  Si  Si239  1  0.332106  0.919832  0.750004  1
  Si  Si240  1  0.582805  0.665504  0.750122  1
  O  O241  1  0.684110  0.021201  0.969107  1
  O  O242  1  0.978009  0.665005  0.969092  1
  O  O243  1  0.333368  0.313557  0.969201  1
  O  O244  1  0.978216  0.313459  0.969284  1
  O  O245  1  0.334819  0.021474  0.969101  1
  O  O246  1  0.685192  0.665121  0.968998  1
  O  O247  1  0.760551  0.881134  0.995045  1
  O  O248  1  0.118736  0.881117  0.995162  1
  O  O249  1  0.117169  0.236190  0.995512  1
  O  O250  1  0.348578  0.355427  0.907358  1
  O  O251  1  0.644266  0.995957  0.907082  1
  O  O252  1  0.002510  0.649208  0.907162  1
  O  O253  1  0.644718  0.649678  0.907053  1
  O  O254  1  0.003691  0.354589  0.907355  1
  O  O255  1  0.348691  0.995337  0.907160  1
  O  O256  1  0.425062  0.213537  0.931992  1
  O  O257  1  0.785858  0.213500  0.932210  1
  O  O258  1  0.784979  0.572070  0.932242  1
  O  O259  1  0.547687  0.450812  0.941424  1
  O  O260  1  0.548452  0.099539  0.941058  1
  O  O261  1  0.900891  0.450594  0.941588  1
  O  O262  1  0.443341  0.889232  0.874489  1
  O  O263  1  0.108362  0.554824  0.874427  1
  O  O264  1  0.443896  0.555938  0.874517  1
  O  O265  1  0.648476  0.003899  0.844390  1
  O  O266  1  0.994470  0.646301  0.844450  1
  O  O267  1  0.351778  0.349985  0.844709  1
  O  O268  1  0.994247  0.348866  0.844642  1
  O  O269  1  0.351386  0.003040  0.844525  1
  O  O270  1  0.648899  0.646555  0.844351  1
  O  O271  1  0.587828  0.794699  0.873389  1
  O  O272  1  0.204191  0.793639  0.873448  1
  O  O273  1  0.204770  0.412653  0.873336  1
  Si  Si274  1  0.413155  0.333353  0.937652  1
  Si  Si275  1  0.665609  0.081883  0.937499  1
  Si  Si276  1  0.917109  0.584746  0.937660  1
  Si  Si277  1  0.665604  0.584990  0.937528  1
  Si  Si278  1  0.917782  0.333026  0.937783  1
  Si  Si279  1  0.413679  0.081931  0.937448  1
  Si  Si280  1  0.583598  0.919422  0.875060  1
  Si  Si281  1  0.078852  0.665292  0.875106  1
  Si  Si282  1  0.333180  0.415986  0.875263  1
  Si  Si283  1  0.079121  0.414914  0.875177  1
  Si  Si284  1  0.332778  0.918711  0.875153  1
  Si  Si285  1  0.584131  0.665999  0.875073  1
  Si  Si286  1  0.747747  0.748795  0.999823  1
  Si  Si287  1  0.999335  0.748701  0.999924  1
  Si  Si288  1  0.746381  0.999813  0.999964  1
