# generated using pymatgen
data_SiO2
_symmetry_space_group_name_H-M   'P 1'
_cell_length_a   16.64856489
_cell_length_b   19.87271577
_cell_length_c   5.10304398
_cell_angle_alpha   90.00000000
_cell_angle_beta   90.00000000
_cell_angle_gamma   90.00000000
_symmetry_Int_Tables_number   1
_chemical_formula_structural   SiO2
_chemical_formula_sum   'Si32 O64'
_cell_volume   1688.35331633
_cell_formula_units_Z   32
loop_
 _symmetry_equiv_pos_site_id
 _symmetry_equiv_pos_as_xyz
  1  'x, y, z'
loop_
 _atom_site_type_symbol
 _atom_site_label
 _atom_site_symmetry_multiplicity
 _atom_site_fract_x
 _atom_site_fract_y
 _atom_site_fract_z
 _atom_site_occupancy
  O  O1  1  0.360278  0.194313  0.770912  1
  O  O2  1  0.860300  0.694309  0.770967  1
  O  O3  1  0.360303  0.805510  0.229320  1
  O  O4  1  0.860275  0.305513  0.229233  1
  O  O5  1  0.639812  0.194308  0.229234  1
  O  O6  1  0.139830  0.694314  0.229321  1
  O  O7  1  0.639833  0.805512  0.770968  1
  O  O8  1  0.139810  0.305510  0.770914  1
  O  O9  1  0.367168  0.195634  0.271541  1
  O  O10  1  0.867189  0.695634  0.271594  1
  O  O11  1  0.367187  0.804191  0.728693  1
  O  O12  1  0.867170  0.304185  0.728605  1
  O  O13  1  0.632919  0.195635  0.728608  1
  O  O14  1  0.132945  0.695633  0.728692  1
  O  O15  1  0.632943  0.804186  0.271596  1
  O  O16  1  0.132921  0.304190  0.271541  1
  O  O17  1  0.250047  0.249917  0.503907  1
  O  O18  1  0.750063  0.749905  0.503970  1
  O  O19  1  0.250063  0.749917  0.496317  1
  O  O20  1  0.750047  0.249905  0.496241  1
  O  O21  1  0.258606  0.123520  0.506506  1
  O  O22  1  0.758633  0.623509  0.506557  1
  O  O23  1  0.258633  0.876312  0.493709  1
  O  O24  1  0.758606  0.376303  0.493664  1
  O  O25  1  0.741477  0.123510  0.493657  1
  O  O26  1  0.241504  0.623520  0.493716  1
  O  O27  1  0.741504  0.876303  0.506551  1
  O  O28  1  0.241477  0.376312  0.506513  1
  O  O29  1  0.138191  0.090953  0.784233  1
  O  O30  1  0.638220  0.590946  0.784311  1
  O  O31  1  0.138215  0.908871  0.215977  1
  O  O32  1  0.638196  0.408874  0.215916  1
  O  O33  1  0.861888  0.090947  0.215895  1
  O  O34  1  0.361921  0.590953  0.215996  1
  O  O35  1  0.861915  0.908874  0.784293  1
  O  O36  1  0.361894  0.408871  0.784252  1
  O  O37  1  0.202290  0.999914  0.500114  1
  O  O38  1  0.702289  0.499908  0.500104  1
  O  O39  1  0.797821  0.999908  0.500107  1
  O  O40  1  0.297820  0.499914  0.500110  1
  O  O41  1  0.126009  0.096939  0.288803  1
  O  O42  1  0.626025  0.596950  0.288882  1
  O  O43  1  0.126030  0.902878  0.711406  1
  O  O44  1  0.626004  0.402877  0.711346  1
  O  O45  1  0.874086  0.096950  0.711325  1
  O  O46  1  0.374100  0.596939  0.711426  1
  O  O47  1  0.874105  0.902877  0.288863  1
  O  O48  1  0.374081  0.402877  0.288822  1
  O  O49  1  0.000043  0.108418  0.000087  1
  O  O50  1  0.500067  0.608419  0.000131  1
  O  O51  1  0.000066  0.891404  0.000127  1
  O  O52  1  0.500045  0.391404  0.000091  1
  O  O53  1  0.103653  0.200210  0.010015  1
  O  O54  1  0.603676  0.700210  0.010040  1
  O  O55  1  0.103674  0.799612  0.990215  1
  O  O56  1  0.603655  0.299613  0.990167  1
  O  O57  1  0.896435  0.200210  0.990169  1
  O  O58  1  0.396457  0.700210  0.990212  1
  O  O59  1  0.896455  0.799613  0.010042  1
  O  O60  1  0.396437  0.299612  0.010011  1
  O  O61  1  0.000044  0.291904  0.000081  1
  O  O62  1  0.500066  0.791904  0.000137  1
  O  O63  1  0.000065  0.707919  0.000140  1
  O  O64  1  0.500045  0.207918  0.000078  1
  Si  Si65  1  0.309874  0.189698  0.513489  1
  Si  Si66  1  0.809896  0.689691  0.513543  1
  Si  Si67  1  0.309897  0.810131  0.486738  1
  Si  Si68  1  0.809873  0.310124  0.486664  1
  Si  Si69  1  0.690214  0.189691  0.486664  1
  Si  Si70  1  0.190237  0.689698  0.486739  1
  Si  Si71  1  0.690237  0.810124  0.513543  1
  Si  Si72  1  0.190213  0.310131  0.513490  1
  Si  Si73  1  0.182702  0.077056  0.520311  1
  Si  Si74  1  0.682722  0.577052  0.520366  1
  Si  Si75  1  0.182722  0.922770  0.479904  1
  Si  Si76  1  0.682702  0.422767  0.479854  1
  Si  Si77  1  0.817389  0.077052  0.479844  1
  Si  Si78  1  0.317408  0.577055  0.479914  1
  Si  Si79  1  0.817408  0.922767  0.520356  1
  Si  Si80  1  0.317388  0.422769  0.520321  1
  Si  Si81  1  0.092434  0.122485  0.021006  1
  Si  Si82  1  0.592457  0.622485  0.021062  1
  Si  Si83  1  0.092456  0.877337  0.979210  1
  Si  Si84  1  0.592435  0.377337  0.979159  1
  Si  Si85  1  0.907653  0.122485  0.979148  1
  Si  Si86  1  0.407676  0.622485  0.979220  1
  Si  Si87  1  0.907675  0.877337  0.021052  1
  Si  Si88  1  0.407654  0.377336  0.021016  1
  Si  Si89  1  0.092818  0.278118  0.013574  1
  Si  Si90  1  0.592840  0.778118  0.013623  1
  Si  Si91  1  0.092839  0.721704  0.986656  1
  Si  Si92  1  0.592819  0.221704  0.986583  1
  Si  Si93  1  0.907270  0.278118  0.986584  1
  Si  Si94  1  0.407292  0.778118  0.986655  1
  Si  Si95  1  0.907291  0.721704  0.013624  1
  Si  Si96  1  0.407271  0.221704  0.013572  1
