# generated using pymatgen
data_SiO2
_symmetry_space_group_name_H-M   'P 1'
_cell_length_a   13.59360902
_cell_length_b   13.59359586
_cell_length_c   9.71873565
_cell_angle_alpha   90.00000000
_cell_angle_beta   90.00000000
_cell_angle_gamma   120.00000000
_symmetry_Int_Tables_number   1
_chemical_formula_structural   SiO2
_chemical_formula_sum   'Si24 O48'
_cell_volume   1555.28337587
_cell_formula_units_Z   24
loop_
 _symmetry_equiv_pos_site_id
 _symmetry_equiv_pos_as_xyz
  1  'x, y, z'
loop_
 _atom_site_type_symbol
 _atom_site_label
 _atom_site_symmetry_multiplicity
 _atom_site_fract_x
 _atom_site_fract_y
 _atom_site_fract_z
 _atom_site_occupancy
  O  O1  1  0.998113  0.638321  0.999967  1
  O  O2  1  0.998149  0.361371  0.999962  1
  O  O3  1  0.998225  0.638336  0.499958  1
  O  O4  1  0.998264  0.361387  0.499971  1
  O  O5  1  0.564528  0.132713  0.073338  1
  O  O6  1  0.865346  0.433433  0.073257  1
  O  O7  1  0.564560  0.433506  0.073424  1
  O  O8  1  0.431777  0.867071  0.573335  1
  O  O9  1  0.131029  0.566284  0.573259  1
  O  O10  1  0.431887  0.566351  0.573425  1
  O  O11  1  0.431708  0.867075  0.926837  1
  O  O12  1  0.130947  0.566281  0.926753  1
  O  O13  1  0.431806  0.566355  0.926920  1
  O  O14  1  0.564599  0.132715  0.426839  1
  O  O15  1  0.865430  0.433435  0.426752  1
  O  O16  1  0.564639  0.433502  0.426919  1
  O  O17  1  0.359641  0.999894  0.000087  1
  O  O18  1  0.636671  0.638416  0.000216  1
  O  O19  1  0.636655  0.999893  0.500086  1
  O  O20  1  0.359783  0.361451  0.500220  1
  O  O21  1  0.636586  0.999894  0.000087  1
  O  O22  1  0.359687  0.361468  0.000210  1
  O  O23  1  0.359712  0.999893  0.500087  1
  O  O24  1  0.636769  0.638398  0.500207  1
  O  O25  1  0.411985  0.081368  0.250101  1
  O  O26  1  0.916731  0.332195  0.249986  1
  O  O27  1  0.665867  0.586075  0.250178  1
  O  O28  1  0.584314  0.918429  0.750098  1
  O  O29  1  0.079635  0.667506  0.749984  1
  O  O30  1  0.330596  0.413788  0.750183  1
  O  O31  1  0.916701  0.585999  0.249995  1
  O  O32  1  0.665780  0.081359  0.250076  1
  O  O33  1  0.412024  0.332282  0.250194  1
  O  O34  1  0.079685  0.413711  0.750000  1
  O  O35  1  0.330510  0.918418  0.750073  1
  O  O36  1  0.584429  0.667591  0.750191  1
  O  O37  1  0.431704  0.216695  0.057246  1
  O  O38  1  0.781347  0.216648  0.057141  1
  O  O39  1  0.781345  0.566264  0.057184  1
  O  O40  1  0.564673  0.783132  0.557243  1
  O  O41  1  0.214987  0.783098  0.557138  1
  O  O42  1  0.215072  0.433525  0.557191  1
  O  O43  1  0.564593  0.783140  0.943034  1
  O  O44  1  0.214903  0.783093  0.942930  1
  O  O45  1  0.214975  0.433524  0.942993  1
  O  O46  1  0.431782  0.216688  0.443037  1
  O  O47  1  0.781434  0.216654  0.442933  1
  O  O48  1  0.781440  0.566260  0.442987  1
  Si  Si49  1  0.438339  0.106708  0.091687  1
  Si  Si50  1  0.891351  0.333249  0.091589  1
  Si  Si51  1  0.664770  0.559682  0.091763  1
  Si  Si52  1  0.557967  0.893081  0.591685  1
  Si  Si53  1  0.105020  0.666465  0.591588  1
  Si  Si54  1  0.331679  0.440175  0.591769  1
  Si  Si55  1  0.891327  0.559614  0.091593  1
  Si  Si56  1  0.664714  0.106709  0.091673  1
  Si  Si57  1  0.438375  0.333321  0.091775  1
  Si  Si58  1  0.105053  0.440105  0.591597  1
  Si  Si59  1  0.331589  0.893074  0.591669  1
  Si  Si60  1  0.558072  0.666539  0.591772  1
  Si  Si61  1  0.557899  0.893080  0.908501  1
  Si  Si62  1  0.104948  0.666468  0.908402  1
  Si  Si63  1  0.331607  0.440175  0.908584  1
  Si  Si64  1  0.438408  0.106712  0.408505  1
  Si  Si65  1  0.891426  0.333247  0.408405  1
  Si  Si66  1  0.664841  0.559681  0.408580  1
  Si  Si67  1  0.104982  0.440106  0.908414  1
  Si  Si68  1  0.331524  0.893080  0.908487  1
  Si  Si69  1  0.557996  0.666539  0.908588  1
  Si  Si70  1  0.891397  0.559611  0.408408  1
  Si  Si71  1  0.664780  0.106706  0.408489  1
  Si  Si72  1  0.438448  0.333321  0.408590  1
