# generated using pymatgen
data_SiO2
_symmetry_space_group_name_H-M   'P 1'
_cell_length_a   17.61808445
_cell_length_b   17.46455311
_cell_length_c   7.36787762
_cell_angle_alpha   90.00000000
_cell_angle_beta   116.10400000
_cell_angle_gamma   90.00000000
_symmetry_Int_Tables_number   1
_chemical_formula_structural   SiO2
_chemical_formula_sum   'Si36 O72'
_cell_volume   2035.79192127
_cell_formula_units_Z   36
loop_
 _symmetry_equiv_pos_site_id
 _symmetry_equiv_pos_as_xyz
  1  'x, y, z'
loop_
 _atom_site_type_symbol
 _atom_site_label
 _atom_site_symmetry_multiplicity
 _atom_site_fract_x
 _atom_site_fract_y
 _atom_site_fract_z
 _atom_site_occupancy
  O  O1  1  0.081629  0.175592  0.038634  1
  O  O2  1  0.581694  0.675642  0.038488  1
  O  O3  1  0.918457  0.175653  0.961756  1
  O  O4  1  0.418513  0.675601  0.961624  1
  O  O5  1  0.918556  0.824181  0.961547  1
  O  O6  1  0.418337  0.324239  0.961970  1
  O  O7  1  0.081736  0.824175  0.038422  1
  O  O8  1  0.581520  0.324120  0.038860  1
  O  O9  1  0.227406  0.108721  0.269280  1
  O  O10  1  0.727443  0.608761  0.269053  1
  O  O11  1  0.772655  0.108755  0.731258  1
  O  O12  1  0.272703  0.608742  0.731067  1
  O  O13  1  0.772755  0.891014  0.731088  1
  O  O14  1  0.272541  0.391133  0.731302  1
  O  O15  1  0.227493  0.891085  0.269092  1
  O  O16  1  0.727290  0.390970  0.269273  1
  O  O17  1  0.192483  0.158906  0.898269  1
  O  O18  1  0.692561  0.658892  0.898137  1
  O  O19  1  0.807614  0.158863  0.102249  1
  O  O20  1  0.307686  0.658885  0.102103  1
  O  O21  1  0.807731  0.840900  0.102090  1
  O  O22  1  0.307501  0.340945  0.102324  1
  O  O23  1  0.192605  0.840923  0.898140  1
  O  O24  1  0.692368  0.340878  0.898359  1
  O  O25  1  0.220854  0.247137  0.190117  1
  O  O26  1  0.720908  0.747179  0.189763  1
  O  O27  1  0.779237  0.247169  0.810724  1
  O  O28  1  0.279288  0.747123  0.810372  1
  O  O29  1  0.779346  0.752613  0.810445  1
  O  O30  1  0.279148  0.252709  0.810523  1
  O  O31  1  0.220964  0.752674  0.189850  1
  O  O32  1  0.720764  0.252568  0.189911  1
  O  O33  1  0.127738  0.368016  0.449663  1
  O  O34  1  0.627930  0.867962  0.449469  1
  O  O35  1  0.872163  0.367988  0.550776  1
  O  O36  1  0.372348  0.868052  0.550577  1
  O  O37  1  0.872307  0.631746  0.550510  1
  O  O38  1  0.372225  0.131804  0.550820  1
  O  O39  1  0.127890  0.631845  0.449415  1
  O  O40  1  0.627810  0.131783  0.449710  1
  O  O41  1  0.202040  0.499924  0.468715  1
  O  O42  1  0.702078  0.999885  0.468999  1
  O  O43  1  0.797981  0.499874  0.531187  1
  O  O44  1  0.298013  0.999913  0.531444  1
  O  O45  1  0.256208  0.373490  0.378366  1
  O  O46  1  0.756371  0.873567  0.378022  1
  O  O47  1  0.743785  0.373571  0.622483  1
  O  O48  1  0.243945  0.873494  0.622178  1
  O  O49  1  0.743930  0.626246  0.622210  1
  O  O50  1  0.243790  0.126316  0.622307  1
  O  O51  1  0.256355  0.626296  0.378072  1
  O  O52  1  0.756225  0.126214  0.378149  1
  O  O53  1  0.128422  0.230694  0.553965  1
  O  O54  1  0.628623  0.730653  0.553801  1
  O  O55  1  0.871492  0.230656  0.446553  1
  O  O56  1  0.371696  0.730695  0.446405  1
  O  O57  1  0.871635  0.769098  0.446376  1
  O  O58  1  0.371580  0.269118  0.446673  1
  O  O59  1  0.128566  0.769142  0.553785  1
  O  O60  1  0.628505  0.269120  0.554049  1
  O  O61  1  0.999878  0.313097  0.499836  1
  O  O62  1  0.500200  0.813095  0.500316  1
  O  O63  1  0.000079  0.686706  0.499926  1
  O  O64  1  0.500136  0.186700  0.500840  1
  O  O65  1  0.023627  0.273281  0.195212  1
  O  O66  1  0.523656  0.773235  0.195291  1
  O  O67  1  0.976484  0.273256  0.804919  1
  O  O68  1  0.476495  0.773294  0.805005  1
  O  O69  1  0.976538  0.726496  0.804854  1
  O  O70  1  0.476343  0.226525  0.805410  1
  O  O71  1  0.023694  0.726575  0.195142  1
  O  O72  1  0.523496  0.226560  0.195698  1
  Si  Si73  1  0.178890  0.168197  0.094897  1
  Si  Si74  1  0.678945  0.668243  0.094716  1
  Si  Si75  1  0.821215  0.168221  0.905628  1
  Si  Si76  1  0.321267  0.668189  0.905461  1
  Si  Si77  1  0.821316  0.831566  0.905462  1
  Si  Si78  1  0.321078  0.331664  0.905676  1
  Si  Si79  1  0.178990  0.831609  0.094730  1
  Si  Si80  1  0.678755  0.331504  0.094936  1
  Si  Si81  1  0.213225  0.411453  0.502995  1
  Si  Si82  1  0.713410  0.911415  0.502886  1
  Si  Si83  1  0.786666  0.411404  0.497430  1
  Si  Si84  1  0.286842  0.911447  0.497330  1
  Si  Si85  1  0.786802  0.588347  0.497238  1
  Si  Si86  1  0.286737  0.088382  0.497529  1
  Si  Si87  1  0.213370  0.588394  0.502805  1
  Si  Si88  1  0.713302  0.088354  0.503051  1
  Si  Si89  1  0.209166  0.189591  0.717663  1
  Si  Si90  1  0.709325  0.689530  0.717589  1
  Si  Si91  1  0.790817  0.189500  0.282760  1
  Si  Si92  1  0.290969  0.689566  0.282681  1
  Si  Si93  1  0.790949  0.810274  0.282612  1
  Si  Si94  1  0.290848  0.310246  0.282981  1
  Si  Si95  1  0.209305  0.810240  0.717539  1
  Si  Si96  1  0.709196  0.310267  0.717873  1
  Si  Si97  1  0.068802  0.297106  0.423835  1
  Si  Si98  1  0.568978  0.797080  0.423852  1
  Si  Si99  1  0.931118  0.297110  0.576355  1
  Si  Si100  1  0.431297  0.797136  0.576424  1
  Si  Si101  1  0.931248  0.702658  0.576264  1
  Si  Si102  1  0.431197  0.202703  0.576811  1
  Si  Si103  1  0.068934  0.702730  0.423709  1
  Si  Si104  1  0.568878  0.202678  0.424232  1
  Si  Si105  1  0.000044  0.223463  0.000085  1
  Si  Si106  1  0.500097  0.723469  0.000104  1
  Si  Si107  1  0.996181  0.776331  0.999953  1
  Si  Si108  1  0.499906  0.276336  0.000516  1
