# generated using pymatgen
data_SiO2
_symmetry_space_group_name_H-M   'P 1'
_cell_length_a   28.06518433
_cell_length_b   25.48081259
_cell_length_c   13.88888375
_cell_angle_alpha   90.00000000
_cell_angle_beta   90.00000000
_cell_angle_gamma   90.00000000
_symmetry_Int_Tables_number   1
_chemical_formula_structural   SiO2
_chemical_formula_sum   'Si152 O304'
_cell_volume   9932.26996562
_cell_formula_units_Z   152
loop_
 _symmetry_equiv_pos_site_id
 _symmetry_equiv_pos_as_xyz
  1  'x, y, z'
loop_
 _atom_site_type_symbol
 _atom_site_label
 _atom_site_symmetry_multiplicity
 _atom_site_fract_x
 _atom_site_fract_y
 _atom_site_fract_z
 _atom_site_occupancy
  O  O1  1  0.096371  0.087549  0.170949  1
  O  O2  1  0.096154  0.411670  0.669817  1
  O  O3  1  0.096204  0.412361  0.329144  1
  O  O4  1  0.096352  0.087407  0.829434  1
  O  O5  1  0.176238  0.095008  0.092322  1
  O  O6  1  0.323821  0.094979  0.592352  1
  O  O7  1  0.176159  0.404113  0.591989  1
  O  O8  1  0.324350  0.403688  0.091824  1
  O  O9  1  0.323372  0.405051  0.907397  1
  O  O10  1  0.176244  0.404852  0.407549  1
  O  O11  1  0.323865  0.095119  0.407927  1
  O  O12  1  0.176205  0.095112  0.907918  1
  O  O13  1  0.164146  0.149915  0.242062  1
  O  O14  1  0.164004  0.350001  0.742857  1
  O  O15  1  0.164148  0.350290  0.257356  1
  O  O16  1  0.164037  0.149721  0.757861  1
  O  O17  1  0.172980  0.050279  0.252153  1
  O  O18  1  0.327060  0.050150  0.752111  1
  O  O19  1  0.172332  0.449681  0.751077  1
  O  O20  1  0.327267  0.449747  0.250747  1
  O  O21  1  0.327856  0.449881  0.747931  1
  O  O22  1  0.172608  0.449949  0.248087  1
  O  O23  1  0.327180  0.050219  0.248242  1
  O  O24  1  0.172927  0.050108  0.748269  1
  O  O25  1  0.000360  0.427793  0.633968  1
  Si  Si26  1  0.207301  0.401745  0.499804  1
  Si  Si27  1  0.292757  0.401729  0.000195  1
  O  O28  1  0.200211  0.499435  0.901652  1
  Si  Si29  1  0.207297  0.098352  0.000100  1
  Si  Si30  1  0.226017  0.304859  0.000117  1
  Si  Si31  1  0.292772  0.098325  0.500112  1
  O  O32  1  0.061634  0.070534  0.000259  1
  O  O33  1  0.061377  0.429270  0.499220  1
  O  O34  1  0.000559  0.072320  0.134943  1
  O  O35  1  0.000200  0.428612  0.364355  1
  O  O36  1  0.000639  0.072142  0.865281  1
  O  O37  1  0.301014  0.190289  0.900521  1
  O  O38  1  0.199024  0.190260  0.400494  1
  O  O39  1  0.301095  0.308524  0.400644  1
  O  O40  1  0.198924  0.308535  0.900701  1
  O  O41  1  0.199045  0.308782  0.099634  1
  O  O42  1  0.300942  0.308822  0.599562  1
  O  O43  1  0.198921  0.190174  0.599451  1
  O  O44  1  0.301120  0.190208  0.099471  1
  O  O45  1  0.234983  0.151312  0.000114  1
  O  O46  1  0.265056  0.151266  0.500135  1
  O  O47  1  0.235918  0.349525  0.499484  1
  O  O48  1  0.264013  0.349602  0.999698  1
  O  O49  1  0.251323  0.250589  0.000294  1
  O  O50  1  0.248730  0.250545  0.500287  1
  O  O51  1  0.250082  0.181350  0.250003  1
  O  O52  1  0.249967  0.181242  0.750015  1
  O  O53  1  0.249920  0.318526  0.750109  1
  O  O54  1  0.250123  0.318678  0.250072  1
  O  O55  1  0.314081  0.249977  0.249463  1
  O  O56  1  0.185959  0.249856  0.749603  1
  O  O57  1  0.313932  0.249946  0.750388  1
  O  O58  1  0.186111  0.250085  0.250589  1
  O  O59  1  0.241590  0.050637  0.999911  1
  O  O60  1  0.258491  0.050600  0.499913  1
  O  O61  1  0.241231  0.449712  0.500663  1
  O  O62  1  0.259012  0.449844  0.002369  1
  Si  Si63  1  0.151254  0.096416  0.192495  1
  Si  Si64  1  0.151030  0.403113  0.692005  1
  Si  Si65  1  0.151116  0.403593  0.307516  1
  Si  Si66  1  0.151212  0.096300  0.807753  1
  Si  Si67  1  0.054988  0.060265  0.111470  1
  Si  Si68  1  0.054893  0.439350  0.610507  1
  Si  Si69  1  0.054775  0.439899  0.388161  1
  Si  Si70  1  0.055038  0.060097  0.889080  1
  Si  Si71  1  0.302227  0.192815  0.213678  1
  Si  Si72  1  0.197826  0.192723  0.713669  1
  Si  Si73  1  0.302041  0.306965  0.713831  1
  Si  Si74  1  0.197981  0.307081  0.213904  1
  Si  Si75  1  0.197823  0.306825  0.786420  1
  Si  Si76  1  0.302221  0.306926  0.286375  1
  Si  Si77  1  0.197948  0.192895  0.286294  1
  Si  Si78  1  0.302098  0.192798  0.786318  1
  Si  Si79  1  0.274121  0.194963  0.000049  1
  Si  Si80  1  0.225922  0.194923  0.500029  1
  Si  Si81  1  0.273982  0.304844  0.500031  1
  O  O82  1  0.299995  0.499936  0.401462  1
  O  O83  1  0.095812  0.588660  0.670468  1
  O  O84  1  0.094840  0.910792  0.170094  1
  O  O85  1  0.094971  0.910641  0.830532  1
  O  O86  1  0.095673  0.589391  0.330694  1
  O  O87  1  0.176179  0.595077  0.592848  1
  O  O88  1  0.323666  0.595229  0.092717  1
  O  O89  1  0.175138  0.904755  0.092162  1
  O  O90  1  0.324897  0.904821  0.592190  1
  O  O91  1  0.324709  0.904990  0.407696  1
  O  O92  1  0.175437  0.904998  0.907654  1
  O  O93  1  0.324435  0.596166  0.907975  1
  O  O94  1  0.175855  0.596194  0.408103  1
  O  O95  1  0.164115  0.650048  0.742834  1
  O  O96  1  0.163723  0.850126  0.242457  1
  O  O97  1  0.163770  0.849918  0.757923  1
  O  O98  1  0.163934  0.650361  0.256990  1
  O  O99  1  0.170836  0.550075  0.752769  1
  O  O100  1  0.170153  0.949982  0.251869  1
  O  O101  1  0.329958  0.949874  0.752018  1
  O  O102  1  0.330004  0.949931  0.247852  1
  O  O103  1  0.170035  0.949816  0.747773  1
  O  O104  1  0.329117  0.550277  0.748546  1
  O  O105  1  0.170557  0.550349  0.248803  1
  O  O106  1  0.250026  0.501847  0.750002  1
  O  O107  1  0.250007  0.502650  0.250153  1
  O  O108  1  0.249996  0.996800  0.750019  1
  O  O109  1  0.200121  0.501156  0.098630  1
  O  O110  1  0.299730  0.999115  0.901670  1
  O  O111  1  0.200310  0.999167  0.401629  1
  O  O112  1  0.061523  0.500036  0.624043  1
  O  O113  1  0.200234  0.999338  0.598395  1
  O  O114  1  0.061243  0.999303  0.876532  1
  O  O115  1  0.060917  0.571390  0.500902  1
  O  O116  1  0.059932  0.928268  0.000552  1
  Si  Si117  1  0.228089  0.999596  0.500049  1
  Si  Si118  1  0.271968  0.999616  0.000082  1
  O  O119  1  0.300828  0.691419  0.400628  1
  O  O120  1  0.199174  0.691466  0.900450  1
  O  O121  1  0.300842  0.810317  0.900735  1
  O  O122  1  0.199264  0.810281  0.400739  1
  O  O123  1  0.199291  0.810225  0.599472  1
  O  O124  1  0.300799  0.810187  0.099458  1
  O  O125  1  0.199095  0.691681  0.099323  1
  O  O126  1  0.301021  0.691701  0.599464  1
  O  O127  1  0.235694  0.650667  0.500757  1
  O  O128  1  0.264368  0.650721  0.000208  1
  O  O129  1  0.234311  0.848806  0.000108  1
  O  O130  1  0.265804  0.848762  0.500055  1
  O  O131  1  0.248708  0.749655  0.499926  1
  O  O132  1  0.251341  0.749681  0.999770  1
  O  O133  1  0.250134  0.681412  0.750019  1
  O  O134  1  0.249937  0.681564  0.249999  1
  O  O135  1  0.250015  0.819263  0.250056  1
  O  O136  1  0.250055  0.819139  0.750066  1
  O  O137  1  0.313897  0.750240  0.750957  1
  O  O138  1  0.186197  0.750378  0.250705  1
  O  O139  1  0.313773  0.750277  0.249489  1
  O  O140  1  0.186293  0.750140  0.749187  1
  O  O141  1  0.241005  0.550546  0.498911  1
  O  O142  1  0.259084  0.550595  0.998246  1
  O  O143  1  0.240634  0.949324  0.000591  1
  O  O144  1  0.259410  0.949288  0.500368  1
  Si  Si145  1  0.150719  0.596906  0.692587  1
  Si  Si146  1  0.149882  0.903059  0.192106  1
  Si  Si147  1  0.149949  0.902951  0.807980  1
  Si  Si148  1  0.150554  0.597499  0.308200  1
  Si  Si149  1  0.054443  0.560746  0.611942  1
  Si  Si150  1  0.053516  0.938854  0.111633  1
  Si  Si151  1  0.053715  0.938688  0.889318  1
  Si  Si152  1  0.054504  0.561293  0.389607  1
  Si  Si153  1  0.302207  0.693313  0.713746  1
  Si  Si154  1  0.197889  0.693431  0.213595  1
  Si  Si155  1  0.302093  0.807476  0.213639  1
  Si  Si156  1  0.197975  0.807388  0.713634  1
  Si  Si157  1  0.197938  0.807555  0.286564  1
  Si  Si158  1  0.302142  0.807463  0.786554  1
  Si  Si159  1  0.198024  0.693179  0.786182  1
  Si  Si160  1  0.302013  0.693297  0.286365  1
  Si  Si161  1  0.273829  0.695294  0.500136  1
  Si  Si162  1  0.226213  0.695324  0.999920  1
  Si  Si163  1  0.273770  0.805479  0.000069  1
  Si  Si164  1  0.226312  0.805467  0.500086  1
  Si  Si165  1  0.207041  0.598460  0.500297  1
  Si  Si166  1  0.293029  0.598524  0.999883  1
  Si  Si167  1  0.206362  0.901615  0.000091  1
  Si  Si168  1  0.293720  0.901604  0.500055  1
  Si  Si169  1  0.302409  0.999254  0.211876  1
  Si  Si170  1  0.197670  0.999133  0.711875  1
  O  O171  1  0.329575  0.550157  0.252376  1
  O  O172  1  0.250087  0.996970  0.250040  1
  Si  Si173  1  0.197656  0.500859  0.212140  1
  O  O174  1  0.061498  0.500651  0.376045  1
  Si  Si175  1  0.302382  0.500535  0.711967  1
  Si  Si176  1  0.302386  0.500451  0.287941  1
  Si  Si177  1  0.302312  0.999108  0.788211  1
  Si  Si178  1  0.197756  0.999223  0.288151  1
  Si  Si179  1  0.197701  0.500121  0.788169  1
  O  O180  1  0.299917  0.500690  0.598472  1
  Si  Si181  1  0.227884  0.500253  0.000181  1
  O  O182  1  0.299834  0.999410  0.098399  1
  Si  Si183  1  0.272237  0.500223  0.499938  1
  O  O184  1  0.061080  0.999473  0.124288  1
  O  O185  1  0.595262  0.089787  0.670180  1
  O  O186  1  0.403664  0.087457  0.671018  1
  O  O187  1  0.596160  0.412531  0.170903  1
  O  O188  1  0.404002  0.412258  0.171083  1
  O  O189  1  0.403727  0.411760  0.830401  1
  O  O190  1  0.595512  0.410978  0.831834  1
  O  O191  1  0.403712  0.087495  0.329528  1
  O  O192  1  0.595158  0.089869  0.329875  1
  O  O193  1  0.663429  0.150949  0.744013  1
  O  O194  1  0.335906  0.149794  0.742186  1
  O  O195  1  0.664046  0.350964  0.242985  1
  O  O196  1  0.336131  0.350144  0.243206  1
  O  O197  1  0.335808  0.350141  0.757555  1
  O  O198  1  0.663740  0.350925  0.756441  1
  O  O199  1  0.336015  0.149840  0.257959  1
  O  O200  1  0.664009  0.151003  0.257659  1
  O  O201  1  0.561712  0.001034  0.624058  1
  Si  Si202  1  0.554084  0.061622  0.388951  1
  Si  Si203  1  0.445029  0.060159  0.389118  1
  Si  Si204  1  0.554156  0.439133  0.889895  1
  Si  Si205  1  0.445053  0.439383  0.889610  1
  O  O206  1  0.561378  0.499743  0.876190  1
  O  O207  1  0.560410  0.072079  0.500127  1
  O  O208  1  0.438436  0.070512  0.500314  1
  O  O209  1  0.560765  0.429098  0.001069  1
  O  O210  1  0.438663  0.429279  0.000899  1
  O  O211  1  0.499476  0.072231  0.635081  1
  O  O212  1  0.499911  0.428557  0.135821  1
  O  O213  1  0.499596  0.427852  0.866211  1
  O  O214  1  0.499429  0.072179  0.365353  1
  Si  Si215  1  0.650151  0.098240  0.692207  1
  Si  Si216  1  0.348784  0.096314  0.692549  1
  Si  Si217  1  0.651146  0.404090  0.192103  1
  Si  Si218  1  0.349083  0.403251  0.192281  1
  Si  Si219  1  0.348865  0.403409  0.807783  1
  Si  Si220  1  0.650402  0.403624  0.808209  1
  Si  Si221  1  0.348867  0.096406  0.307778  1
  Si  Si222  1  0.650104  0.097995  0.307675  1
  Si  Si223  1  0.554113  0.061625  0.611309  1
  Si  Si224  1  0.445051  0.060185  0.611513  1
  Si  Si225  1  0.554493  0.439808  0.112161  1
  Si  Si226  1  0.445353  0.439876  0.111957  1
  O  O227  1  0.561636  0.001013  0.376215  1
  O  O228  1  0.595648  0.589219  0.169764  1
  O  O229  1  0.404198  0.589291  0.169400  1
  O  O230  1  0.597188  0.913089  0.670528  1
  O  O231  1  0.405222  0.910691  0.669974  1
  O  O232  1  0.405130  0.910716  0.330425  1
  O  O233  1  0.596906  0.912961  0.329778  1
  O  O234  1  0.404451  0.588778  0.829610  1
  O  O235  1  0.596162  0.588028  0.828943  1
  O  O236  1  0.663753  0.650725  0.243239  1
  O  O237  1  0.335895  0.650218  0.242793  1
  O  O238  1  0.664573  0.851064  0.742567  1
  O  O239  1  0.336355  0.849994  0.742292  1
  O  O240  1  0.336323  0.850032  0.257787  1
  O  O241  1  0.664225  0.851086  0.256873  1
  O  O242  1  0.336206  0.650198  0.756881  1
  O  O243  1  0.663685  0.650571  0.756207  1
  Si  Si244  1  0.554819  0.560516  0.888216  1
  O  O245  1  0.438982  0.999391  0.624271  1
  Si  Si246  1  0.445719  0.560778  0.888323  1
  O  O247  1  0.561198  0.571155  0.999327  1
  O  O248  1  0.439148  0.571396  0.999358  1
  O  O249  1  0.562139  0.929914  0.500220  1
  O  O250  1  0.440157  0.928244  0.500448  1
  O  O251  1  0.500007  0.572624  0.134146  1
  O  O252  1  0.501216  0.928156  0.635233  1
  O  O253  1  0.501043  0.928152  0.365444  1
  O  O254  1  0.500289  0.571895  0.864526  1
  Si  Si255  1  0.650452  0.597758  0.192334  1
  Si  Si256  1  0.349326  0.597191  0.192219  1
  Si  Si257  1  0.652056  0.904524  0.692453  1
  Si  Si258  1  0.350186  0.902981  0.692094  1
  Si  Si259  1  0.350134  0.903044  0.307947  1
  Si  Si260  1  0.651744  0.904362  0.307673  1
  Si  Si261  1  0.349534  0.597241  0.807839  1
  Si  Si262  1  0.650988  0.597589  0.807906  1
  Si  Si263  1  0.554536  0.561192  0.110604  1
  Si  Si264  1  0.445466  0.561272  0.110659  1
  Si  Si265  1  0.555629  0.940242  0.611409  1
  Si  Si266  1  0.446552  0.938779  0.611548  1
  Si  Si267  1  0.446391  0.938752  0.389244  1
  Si  Si268  1  0.555468  0.940236  0.389059  1
  O  O269  1  0.561336  0.500542  0.124179  1
  O  O270  1  0.438848  0.999370  0.376531  1
  O  O271  1  0.438538  0.500616  0.124137  1
  O  O272  1  0.438514  0.500080  0.876145  1
  O  O273  1  0.904750  0.090068  0.169464  1
  O  O274  1  0.904384  0.411065  0.668586  1
  O  O275  1  0.903977  0.412681  0.329154  1
  O  O276  1  0.904865  0.089841  0.829929  1
  O  O277  1  0.675349  0.098175  0.592188  1
  O  O278  1  0.824409  0.099290  0.092066  1
  O  O279  1  0.676289  0.404383  0.091941  1
  O  O280  1  0.823464  0.405278  0.592667  1
  O  O281  1  0.823752  0.405403  0.407748  1
  O  O282  1  0.676657  0.404463  0.907217  1
  O  O283  1  0.824666  0.097535  0.907681  1
  O  O284  1  0.675280  0.096123  0.407651  1
  O  O285  1  0.836733  0.151179  0.244295  1
  O  O286  1  0.836031  0.350667  0.742790  1
  O  O287  1  0.836053  0.351306  0.256961  1
  O  O288  1  0.836193  0.150873  0.756705  1
  O  O289  1  0.670621  0.051083  0.750942  1
  O  O290  1  0.829463  0.051294  0.250019  1
  O  O291  1  0.672710  0.450539  0.251235  1
  O  O292  1  0.829775  0.450593  0.752454  1
  O  O293  1  0.827683  0.450858  0.247957  1
  O  O294  1  0.669990  0.450923  0.748381  1
  O  O295  1  0.829912  0.050898  0.748491  1
  O  O296  1  0.670011  0.051111  0.247302  1
  O  O297  1  0.750278  0.004011  0.749282  1
  O  O298  1  0.749743  0.004348  0.250214  1
  O  O299  1  0.749927  0.497449  0.749537  1
  O  O300  1  0.701313  0.002443  0.901536  1
  Si  Si301  1  0.771083  0.496646  0.999622  1
  Si  Si302  1  0.802118  0.002230  0.287767  1
  Si  Si303  1  0.698132  0.001980  0.788137  1
  O  O304  1  0.938727  0.499698  0.624075  1
  Si  Si305  1  0.697631  0.001791  0.211229  1
  O  O306  1  0.939581  0.072002  0.999994  1
  O  O307  1  0.939264  0.429056  0.499188  1
  Si  Si308  1  0.728059  0.497644  0.500330  1
  O  O309  1  0.801366  0.192405  0.400974  1
  O  O310  1  0.698347  0.192988  0.900827  1
  O  O311  1  0.800712  0.309415  0.900573  1
  O  O312  1  0.699497  0.309882  0.400508  1
  O  O313  1  0.699393  0.310188  0.598843  1
  O  O314  1  0.800911  0.309714  0.099131  1
  O  O315  1  0.698850  0.191934  0.099780  1
  O  O316  1  0.800722  0.191328  0.599616  1
  O  O317  1  0.739273  0.145195  0.497783  1
  O  O318  1  0.758000  0.142544  0.998212  1
  O  O319  1  0.732127  0.342832  0.999982  1
  O  O320  1  0.767685  0.344629  0.499679  1
  O  O321  1  0.745565  0.245681  0.500382  1
  O  O322  1  0.755862  0.243958  0.000486  1
  O  O323  1  0.749709  0.182050  0.750543  1
  O  O324  1  0.750363  0.182256  0.250004  1
  O  O325  1  0.750131  0.319651  0.249719  1
  O  O326  1  0.749878  0.319569  0.750002  1
  O  O327  1  0.813696  0.250746  0.749590  1
  O  O328  1  0.686276  0.250869  0.250100  1
  O  O329  1  0.814239  0.251185  0.250164  1
  O  O330  1  0.685862  0.250934  0.748977  1
  O  O331  1  0.735263  0.044182  0.501425  1
  O  O332  1  0.766807  0.042166  0.001022  1
  O  O333  1  0.745277  0.442376  0.000258  1
  O  O334  1  0.755195  0.444238  0.499823  1
  Si  Si335  1  0.849910  0.098628  0.191773  1
  Si  Si336  1  0.849478  0.403603  0.691901  1
  Si  Si337  1  0.848979  0.404466  0.307672  1
  Si  Si338  1  0.849947  0.098095  0.807755  1
  Si  Si339  1  0.945919  0.061687  0.111153  1
  Si  Si340  1  0.945791  0.439084  0.610394  1
  Si  Si341  1  0.945622  0.439861  0.388134  1
  Si  Si342  1  0.945969  0.061559  0.888815  1
  Si  Si343  1  0.801801  0.193633  0.713749  1
  Si  Si344  1  0.698135  0.193802  0.214002  1
  Si  Si345  1  0.802278  0.308125  0.213349  1
  Si  Si346  1  0.697827  0.308021  0.712982  1
  Si  Si347  1  0.698065  0.307939  0.286374  1
  Si  Si348  1  0.801982  0.307753  0.786373  1
  Si  Si349  1  0.697550  0.194106  0.786537  1
  Si  Si350  1  0.802422  0.194191  0.286746  1
  Si  Si351  1  0.773808  0.193075  0.500005  1
  Si  Si352  1  0.725834  0.192469  0.000048  1
  Si  Si353  1  0.774133  0.301889  0.999989  1
  Si  Si354  1  0.726290  0.303093  0.499758  1
  Si  Si355  1  0.706482  0.096193  0.499919  1
  Si  Si356  1  0.793401  0.095737  0.999780  1
  Si  Si357  1  0.707228  0.397872  0.999828  1
  Si  Si358  1  0.792843  0.399424  0.499996  1
  Si  Si359  1  0.802616  0.001598  0.711538  1
  O  O360  1  0.799509  0.002715  0.401299  1
  O  O361  1  0.938324  0.001096  0.124128  1
  O  O362  1  0.938426  0.000941  0.876023  1
  O  O363  1  0.799953  0.001671  0.597985  1
  O  O364  1  0.700902  0.001647  0.097815  1
  O  O365  1  0.903964  0.587836  0.671697  1
  O  O366  1  0.902872  0.913156  0.170371  1
  O  O367  1  0.903219  0.912777  0.829913  1
  O  O368  1  0.904416  0.589314  0.330494  1
  O  O369  1  0.675902  0.597231  0.092616  1
  O  O370  1  0.824613  0.597232  0.591534  1
  O  O371  1  0.677444  0.905805  0.592570  1
  O  O372  1  0.822608  0.904799  0.092432  1
  O  O373  1  0.822927  0.904469  0.907624  1
  O  O374  1  0.677128  0.905147  0.407561  1
  O  O375  1  0.824081  0.595742  0.407091  1
  O  O376  1  0.675780  0.598696  0.908300  1
  O  O377  1  0.836121  0.650256  0.743222  1
  O  O378  1  0.835639  0.851298  0.243273  1
  O  O379  1  0.835989  0.850751  0.757034  1
  O  O380  1  0.836256  0.650891  0.257677  1
  O  O381  1  0.670801  0.550823  0.251830  1
  O  O382  1  0.826776  0.550845  0.750648  1
  O  O383  1  0.673365  0.950758  0.752614  1
  O  O384  1  0.826585  0.950992  0.251629  1
  O  O385  1  0.827042  0.950470  0.748282  1
  O  O386  1  0.673026  0.950734  0.247902  1
  O  O387  1  0.829297  0.551118  0.246660  1
  O  O388  1  0.673333  0.551187  0.750006  1
  O  O389  1  0.750122  0.503084  0.250589  1
  O  O390  1  0.999071  0.928101  0.865483  1
  O  O391  1  0.998850  0.928232  0.135282  1
  Si  Si392  1  0.697764  0.501208  0.288339  1
  O  O393  1  0.700419  0.501168  0.401857  1
  Si  Si394  1  0.697543  0.500243  0.712158  1
  Si  Si395  1  0.802180  0.501348  0.211157  1
  O  O396  1  0.938894  0.571236  0.501136  1
  O  O397  1  0.937955  0.929982  0.000211  1
  O  O398  1  0.999882  0.571857  0.635861  1
  Si  Si399  1  0.771969  0.998347  0.499814  1
  O  O400  1  0.801452  0.691857  0.900707  1
  O  O401  1  0.698822  0.691681  0.400386  1
  O  O402  1  0.800753  0.809789  0.400921  1
  O  O403  1  0.699147  0.809057  0.900423  1
  O  O404  1  0.699103  0.809214  0.099135  1
  O  O405  1  0.800949  0.809332  0.599402  1
  O  O406  1  0.699016  0.691338  0.599152  1
  O  O407  1  0.801732  0.692439  0.099751  1
  O  O408  1  0.742273  0.642336  0.001428  1
  O  O409  1  0.760963  0.645369  0.498812  1
  O  O410  1  0.732981  0.844700  0.500517  1
  O  O411  1  0.767466  0.842848  0.999879  1
  O  O412  1  0.744372  0.743778  0.999994  1
  O  O413  1  0.754181  0.745645  0.499852  1
  O  O414  1  0.750061  0.682207  0.249686  1
  O  O415  1  0.749989  0.681888  0.750267  1
  O  O416  1  0.750211  0.818959  0.750150  1
  O  O417  1  0.749945  0.819265  0.249935  1
  O  O418  1  0.814136  0.750899  0.250579  1
  O  O419  1  0.686001  0.750660  0.749181  1
  O  O420  1  0.814214  0.750372  0.749916  1
  O  O421  1  0.685896  0.750781  0.250160  1
  O  O422  1  0.733733  0.541980  0.998862  1
  O  O423  1  0.763945  0.544209  0.501452  1
  O  O424  1  0.745652  0.944401  0.499089  1
  O  O425  1  0.754046  0.942637  0.999325  1
  Si  Si426  1  0.849032  0.597142  0.692298  1
  Si  Si427  1  0.848028  0.904539  0.192290  1
  Si  Si428  1  0.848398  0.904053  0.807823  1
  Si  Si429  1  0.849593  0.597637  0.307504  1
  Si  Si430  1  0.945341  0.560471  0.612211  1
  Si  Si431  1  0.944450  0.940305  0.111393  1
  Si  Si432  1  0.944638  0.940173  0.889026  1
  Si  Si433  1  0.945449  0.561252  0.389830  1
  Si  Si434  1  0.802336  0.693901  0.214039  1
  Si  Si435  1  0.697939  0.693550  0.713300  1
  Si  Si436  1  0.802313  0.807417  0.713568  1
  Si  Si437  1  0.697841  0.807723  0.213343  1
  Si  Si438  1  0.698003  0.807562  0.786198  1
  Si  Si439  1  0.802047  0.807912  0.286762  1
  Si  Si440  1  0.697898  0.693726  0.286191  1
  Si  Si441  1  0.802188  0.693417  0.786469  1
  Si  Si442  1  0.774398  0.692286  0.000343  1
  Si  Si443  1  0.726088  0.692948  0.499698  1
  Si  Si444  1  0.774034  0.802804  0.500210  1
  Si  Si445  1  0.725751  0.801571  0.999831  1
  Si  Si446  1  0.706998  0.595430  0.000313  1
  Si  Si447  1  0.793154  0.595890  0.499686  1
  Si  Si448  1  0.707998  0.899556  0.499916  1
  Si  Si449  1  0.792065  0.898045  0.999845  1
  O  O450  1  0.798826  0.501137  0.097820  1
  Si  Si451  1  0.728911  0.997333  0.999845  1
  Si  Si452  1  0.802128  0.500032  0.788030  1
  O  O453  1  0.700109  0.500627  0.598586  1
  O  O454  1  0.799001  0.500588  0.901473  1
  O  O455  1  0.938712  0.500585  0.376271  1
  O  O456  1  0.999974  0.572672  0.366203  1
