# generated using pymatgen
data_SiO2
_symmetry_space_group_name_H-M   'P 1'
_cell_length_a   20.81490325
_cell_length_b   13.64855836
_cell_length_c   12.58952678
_cell_angle_alpha   90.00000000
_cell_angle_beta   90.00000000
_cell_angle_gamma   90.00000000
_symmetry_Int_Tables_number   1
_chemical_formula_structural   SiO2
_chemical_formula_sum   'Si56 O112'
_cell_volume   3576.60173899
_cell_formula_units_Z   56
loop_
 _symmetry_equiv_pos_site_id
 _symmetry_equiv_pos_as_xyz
  1  'x, y, z'
loop_
 _atom_site_type_symbol
 _atom_site_label
 _atom_site_symmetry_multiplicity
 _atom_site_fract_x
 _atom_site_fract_y
 _atom_site_fract_z
 _atom_site_occupancy
  O  O1  1  0.104317  0.160202  0.101114  1
  O  O2  1  0.104323  0.160201  0.899047  1
  O  O3  1  0.000036  0.128836  0.000072  1
  O  O4  1  0.086478  0.131381  0.500083  1
  O  O5  1  0.200786  0.499872  0.142155  1
  Si  Si6  1  0.074170  0.113094  0.000078  1
  O  O7  1  0.119321  0.171704  0.299974  1
  O  O8  1  0.119328  0.171702  0.700189  1
  O  O9  1  0.000038  0.132872  0.642475  1
  O  O10  1  0.215079  0.134482  0.171071  1
  O  O11  1  0.284991  0.365272  0.171079  1
  O  O12  1  0.284996  0.365272  0.829095  1
  O  O13  1  0.215086  0.134482  0.829094  1
  O  O14  1  0.170035  0.306306  0.169697  1
  O  O15  1  0.330034  0.193443  0.169710  1
  O  O16  1  0.330041  0.193445  0.830470  1
  O  O17  1  0.170040  0.306305  0.830467  1
  O  O18  1  0.200791  0.499873  0.858013  1
  O  O19  1  0.278552  0.127464  0.000087  1
  O  O20  1  0.221527  0.372289  0.000084  1
  Si  Si21  1  0.073975  0.113025  0.377886  1
  Si  Si22  1  0.073978  0.113025  0.622281  1
  Si  Si23  1  0.151771  0.195111  0.189585  1
  Si  Si24  1  0.151779  0.195110  0.810577  1
  Si  Si25  1  0.283537  0.112151  0.123651  1
  Si  Si26  1  0.216534  0.387599  0.123648  1
  Si  Si27  1  0.216537  0.387599  0.876520  1
  Si  Si28  1  0.283543  0.112152  0.876523  1
  O  O29  1  0.000035  0.132872  0.357698  1
  O  O30  1  0.104299  0.839547  0.101114  1
  O  O31  1  0.104306  0.839548  0.899047  1
  O  O32  1  0.083272  0.999883  0.641720  1
  O  O33  1  0.087197  0.999878  0.000079  1
  O  O34  1  0.086463  0.868384  0.500083  1
  O  O35  1  0.119301  0.828052  0.299974  1
  O  O36  1  0.119308  0.828053  0.700189  1
  Si  Si37  1  0.074157  0.886665  0.000077  1
  O  O38  1  0.000019  0.866923  0.357698  1
  O  O39  1  0.284972  0.634482  0.171077  1
  O  O40  1  0.215060  0.865272  0.171073  1
  O  O41  1  0.215068  0.865272  0.829091  1
  O  O42  1  0.284977  0.634482  0.829100  1
  O  O43  1  0.330015  0.806306  0.169706  1
  O  O44  1  0.170016  0.693444  0.169702  1
  O  O45  1  0.170023  0.693445  0.830462  1
  O  O46  1  0.330023  0.806305  0.830475  1
  O  O47  1  0.299265  0.999872  0.142159  1
  Si  Si48  1  0.216519  0.612151  0.876521  1
  O  O49  1  0.299272  0.999873  0.858017  1
  O  O50  1  0.221505  0.627464  0.000085  1
  O  O51  1  0.278531  0.872288  0.000086  1
  Si  Si52  1  0.073962  0.886744  0.377886  1
  Si  Si53  1  0.073964  0.886743  0.622281  1
  Si  Si54  1  0.151753  0.804640  0.189587  1
  Si  Si55  1  0.151761  0.804641  0.810575  1
  Si  Si56  1  0.216515  0.612151  0.123649  1
  Si  Si57  1  0.283519  0.887599  0.123650  1
  Si  Si58  1  0.283525  0.887599  0.876523  1
  O  O59  1  0.083269  0.999883  0.358446  1
  O  O60  1  0.000022  0.866922  0.642475  1
  O  O61  1  0.000021  0.870958  0.000071  1
  O  O62  1  0.604323  0.339590  0.101121  1
  O  O63  1  0.395752  0.339544  0.101121  1
  O  O64  1  0.395757  0.339552  0.899054  1
  O  O65  1  0.604317  0.339594  0.899053  1
  O  O66  1  0.500036  0.370958  0.000097  1
  O  O67  1  0.586478  0.368413  0.500085  1
  O  O68  1  0.413594  0.368384  0.500086  1
  O  O69  1  0.583270  0.499912  0.358449  1
  O  O70  1  0.619325  0.328091  0.299979  1
  O  O71  1  0.380751  0.328053  0.299980  1
  O  O72  1  0.380754  0.328052  0.700195  1
  O  O73  1  0.619324  0.328091  0.700194  1
  O  O74  1  0.500036  0.366923  0.357696  1
  O  O75  1  0.500037  0.366922  0.642473  1
  Si  Si76  1  0.573976  0.386770  0.377888  1
  Si  Si77  1  0.426094  0.386744  0.377888  1
  Si  Si78  1  0.426094  0.386743  0.622283  1
  Si  Si79  1  0.573976  0.386769  0.622282  1
  Si  Si80  1  0.651777  0.304683  0.189592  1
  Si  Si81  1  0.348297  0.304640  0.189595  1
  Si  Si82  1  0.348303  0.304641  0.810583  1
  Si  Si83  1  0.651773  0.304684  0.810584  1
  Si  Si84  1  0.574169  0.386699  0.000090  1
  Si  Si85  1  0.425900  0.386666  0.000092  1
  O  O86  1  0.587197  0.499915  0.000092  1
  O  O87  1  0.412860  0.499878  0.000096  1
  O  O88  1  0.416787  0.499883  0.358449  1
  O  O89  1  0.416787  0.499883  0.641723  1
  O  O90  1  0.583271  0.499911  0.641722  1
  O  O91  1  0.604306  0.660247  0.101121  1
  O  O92  1  0.395733  0.660205  0.101122  1
  O  O93  1  0.395740  0.660199  0.899054  1
  O  O94  1  0.604299  0.660245  0.899054  1
  O  O95  1  0.500021  0.628836  0.000099  1
  Si  Si96  1  0.425887  0.613095  0.000093  1
  Si  Si97  1  0.574157  0.613128  0.000092  1
  O  O98  1  0.586463  0.631411  0.500086  1
  O  O99  1  0.413579  0.631381  0.500086  1
  Si  Si100  1  0.651754  0.695153  0.810583  1
  Si  Si101  1  0.348285  0.695110  0.810585  1
  Si  Si102  1  0.348279  0.695111  0.189594  1
  O  O103  1  0.619305  0.671742  0.299980  1
  O  O104  1  0.380731  0.671703  0.299981  1
  O  O105  1  0.380734  0.671703  0.700195  1
  O  O106  1  0.619304  0.671741  0.700195  1
  O  O107  1  0.500020  0.632873  0.357697  1
  O  O108  1  0.500021  0.632871  0.642474  1
  Si  Si109  1  0.573963  0.613051  0.377888  1
  Si  Si110  1  0.426081  0.613025  0.377889  1
  Si  Si111  1  0.426081  0.613025  0.622284  1
  Si  Si112  1  0.573963  0.613051  0.622283  1
  Si  Si113  1  0.651759  0.695154  0.189595  1
  O  O114  1  0.895759  0.160245  0.101121  1
  O  O115  1  0.895750  0.160247  0.899054  1
  Si  Si116  1  0.716533  0.112195  0.876522  1
  O  O117  1  0.913594  0.131411  0.500089  1
  O  O118  1  0.880752  0.171742  0.299980  1
  O  O119  1  0.880753  0.171742  0.700195  1
  Si  Si120  1  0.925900  0.113128  0.000083  1
  O  O121  1  0.784996  0.134522  0.171074  1
  O  O122  1  0.715085  0.365312  0.171077  1
  O  O123  1  0.715080  0.365313  0.829100  1
  O  O124  1  0.784990  0.134522  0.829091  1
  O  O125  1  0.830040  0.306350  0.169704  1
  O  O126  1  0.670040  0.193488  0.169704  1
  O  O127  1  0.670035  0.193489  0.830473  1
  O  O128  1  0.830035  0.306350  0.830464  1
  O  O129  1  0.799271  0.499921  0.142157  1
  O  O130  1  0.799266  0.499922  0.858015  1
  O  O131  1  0.721526  0.127506  0.000085  1
  O  O132  1  0.778552  0.372330  0.000086  1
  Si  Si133  1  0.926093  0.113051  0.377891  1
  Si  Si134  1  0.926095  0.113051  0.622286  1
  Si  Si135  1  0.848302  0.195154  0.189591  1
  Si  Si136  1  0.848298  0.195154  0.810579  1
  Si  Si137  1  0.716537  0.112195  0.123649  1
  Si  Si138  1  0.783542  0.387642  0.123650  1
  Si  Si139  1  0.783538  0.387643  0.876522  1
  O  O140  1  0.895741  0.839593  0.101121  1
  O  O141  1  0.895732  0.839591  0.899053  1
  O  O142  1  0.913579  0.868413  0.500089  1
  O  O143  1  0.912860  0.999915  0.000083  1
  O  O144  1  0.916789  0.999911  0.641726  1
  O  O145  1  0.880732  0.828091  0.299980  1
  O  O146  1  0.880733  0.828091  0.700194  1
  O  O147  1  0.715067  0.634522  0.171081  1
  O  O148  1  0.784978  0.865312  0.171071  1
  O  O149  1  0.784971  0.865312  0.829093  1
  O  O150  1  0.715061  0.634521  0.829098  1
  O  O151  1  0.670022  0.806350  0.169708  1
  O  O152  1  0.830022  0.693488  0.169700  1
  O  O153  1  0.830017  0.693488  0.830468  1
  O  O154  1  0.670016  0.806350  0.830469  1
  O  O155  1  0.700791  0.999921  0.142157  1
  O  O156  1  0.700786  0.999922  0.858015  1
  O  O157  1  0.778531  0.627506  0.000087  1
  O  O158  1  0.721505  0.872330  0.000085  1
  Si  Si159  1  0.926080  0.886769  0.377891  1
  Si  Si160  1  0.926082  0.886769  0.622286  1
  Si  Si161  1  0.848284  0.804683  0.189589  1
  Si  Si162  1  0.848279  0.804683  0.810580  1
  Si  Si163  1  0.783524  0.612195  0.123650  1
  Si  Si164  1  0.716519  0.887643  0.123649  1
  Si  Si165  1  0.716515  0.887643  0.876522  1
  Si  Si166  1  0.783520  0.612195  0.876523  1
  Si  Si167  1  0.925887  0.886699  0.000082  1
  O  O168  1  0.916785  0.999911  0.358452  1
