# generated using pymatgen
data_SiO2
_symmetry_space_group_name_H-M   'P 1'
_cell_length_a   11.39954126
_cell_length_b   22.06519392
_cell_length_c   25.27156065
_cell_angle_alpha   90.00000000
_cell_angle_beta   90.00000000
_cell_angle_gamma   90.00000000
_symmetry_Int_Tables_number   1
_chemical_formula_structural   SiO2
_chemical_formula_sum   'Si112 O224'
_cell_volume   6356.63370072
_cell_formula_units_Z   112
loop_
 _symmetry_equiv_pos_site_id
 _symmetry_equiv_pos_as_xyz
  1  'x, y, z'
loop_
 _atom_site_type_symbol
 _atom_site_label
 _atom_site_symmetry_multiplicity
 _atom_site_fract_x
 _atom_site_fract_y
 _atom_site_fract_z
 _atom_site_occupancy
  O  O1  1  0.307428  0.105718  0.199533  1
  O  O2  1  0.692661  0.105713  0.300519  1
  O  O3  1  0.307439  0.105718  0.300529  1
  O  O4  1  0.692663  0.105717  0.199522  1
  O  O5  1  0.112056  0.075238  0.163997  1
  O  O6  1  0.888053  0.075239  0.164002  1
  O  O7  1  0.282542  0.105732  0.100424  1
  O  O8  1  0.717594  0.105724  0.100416  1
  O  O9  1  0.173751  0.185807  0.161412  1
  O  O10  1  0.826348  0.185807  0.161409  1
  O  O11  1  0.207871  0.391540  0.101173  1
  O  O12  1  0.792220  0.391540  0.101171  1
  O  O13  1  0.188693  0.409386  0.199208  1
  O  O14  1  0.811406  0.409372  0.300833  1
  O  O15  1  0.188698  0.409385  0.300834  1
  O  O16  1  0.811404  0.409386  0.199207  1
  O  O17  1  0.384632  0.376947  0.165626  1
  O  O18  1  0.615461  0.376950  0.165624  1
  O  O19  1  0.206574  0.302158  0.167968  1
  O  O20  1  0.793524  0.302154  0.332093  1
  O  O21  1  0.206560  0.302165  0.332090  1
  O  O22  1  0.793518  0.302159  0.167967  1
  O  O23  1  0.154488  0.240498  0.250029  1
  O  O24  1  0.845602  0.240496  0.250027  1
  O  O25  1  0.000047  0.255890  0.180920  1
  O  O26  1  0.000044  0.255883  0.319137  1
  O  O27  1  0.500067  0.080889  0.071664  1
  Si  Si28  1  0.500053  0.405182  0.311197  1
  Si  Si29  1  0.500047  0.405184  0.188856  1
  O  O30  1  0.342071  0.081752  0.000508  1
  O  O31  1  0.154433  0.499829  0.070222  1
  O  O32  1  0.000045  0.419426  0.069791  1
  O  O33  1  0.500047  0.088760  0.250023  1
  O  O34  1  0.343058  0.007997  0.250031  1
  O  O35  1  0.657036  0.007996  0.250017  1
  O  O36  1  0.000049  0.427000  0.250022  1
  O  O37  1  0.500040  0.475439  0.180326  1
  O  O38  1  0.500056  0.475436  0.319734  1
  O  O39  1  0.000060  0.057752  0.250025  1
  O  O40  1  0.500053  0.394764  0.250027  1
  Si  Si41  1  0.217840  0.119138  0.154200  1
  Si  Si42  1  0.782271  0.119137  0.154196  1
  Si  Si43  1  0.249247  0.368362  0.156977  1
  Si  Si44  1  0.750847  0.368363  0.156976  1
  Si  Si45  1  0.135495  0.246380  0.188831  1
  Si  Si46  1  0.864597  0.246375  0.311225  1
  Si  Si47  1  0.135494  0.246383  0.311226  1
  Si  Si48  1  0.864598  0.246380  0.188830  1
  Si  Si49  1  0.364777  0.069833  0.061339  1
  Si  Si50  1  0.635352  0.069826  0.061333  1
  Si  Si51  1  0.135202  0.430040  0.060361  1
  Si  Si52  1  0.864889  0.430039  0.060359  1
  Si  Si53  1  0.364685  0.078045  0.250029  1
  Si  Si54  1  0.635408  0.078044  0.250020  1
  Si  Si55  1  0.135354  0.438040  0.250022  1
  Si  Si56  1  0.864742  0.438035  0.250023  1
  Si  Si57  1  0.000056  0.045633  0.188759  1
  Si  Si58  1  0.000054  0.045637  0.311292  1
  O  O59  1  0.845657  0.499828  0.070219  1
  O  O60  1  0.658052  0.081743  0.000502  1
  O  O61  1  0.388058  0.424710  0.663994  1
  O  O62  1  0.888042  0.075235  0.336048  1
  O  O63  1  0.112047  0.075248  0.336053  1
  O  O64  1  0.612061  0.424713  0.663997  1
  O  O65  1  0.217580  0.394226  0.600415  1
  O  O66  1  0.717564  0.105721  0.399627  1
  O  O67  1  0.282518  0.105727  0.399636  1
  O  O68  1  0.782527  0.394223  0.600413  1
  O  O69  1  0.326335  0.314145  0.661408  1
  O  O70  1  0.826337  0.185801  0.338641  1
  O  O71  1  0.173765  0.185812  0.338646  1
  O  O72  1  0.673756  0.314145  0.661406  1
  O  O73  1  0.292231  0.108402  0.601181  1
  O  O74  1  0.792233  0.391557  0.398871  1
  O  O75  1  0.207880  0.391563  0.398871  1
  O  O76  1  0.707884  0.108400  0.601173  1
  O  O77  1  0.115466  0.123001  0.665627  1
  O  O78  1  0.615468  0.376945  0.334427  1
  O  O79  1  0.384633  0.376946  0.334424  1
  O  O80  1  0.884635  0.123005  0.665628  1
  O  O81  1  0.000054  0.419063  0.571658  1
  O  O82  1  0.500040  0.080885  0.428390  1
  Si  Si83  1  0.635210  0.069901  0.560363  1
  O  O84  1  0.845668  0.499849  0.429828  1
  Si  Si85  1  0.135213  0.430062  0.439683  1
  Si  Si86  1  0.864900  0.430059  0.439681  1
  Si  Si87  1  0.364897  0.069902  0.560369  1
  O  O88  1  0.158046  0.418209  0.500500  1
  O  O89  1  0.658038  0.081749  0.499545  1
  O  O90  1  0.342057  0.081751  0.499551  1
  O  O91  1  0.842066  0.418206  0.500498  1
  O  O92  1  0.500054  0.080514  0.569798  1
  O  O93  1  0.000057  0.419450  0.430249  1
  Si  Si94  1  0.282265  0.380816  0.654194  1
  Si  Si95  1  0.782255  0.119131  0.345850  1
  Si  Si96  1  0.217838  0.119141  0.345857  1
  Si  Si97  1  0.717842  0.380813  0.654192  1
  Si  Si98  1  0.250853  0.131586  0.656982  1
  Si  Si99  1  0.750855  0.368361  0.343073  1
  Si  Si100  1  0.249245  0.368369  0.343071  1
  Si  Si101  1  0.749250  0.131588  0.656976  1
  Si  Si102  1  0.135341  0.430125  0.561331  1
  Si  Si103  1  0.635328  0.069827  0.438715  1
  Si  Si104  1  0.364754  0.069828  0.438720  1
  Si  Si105  1  0.864767  0.430122  0.561330  1
  O  O106  1  0.154443  0.499853  0.429831  1
  O  O107  1  0.345664  0.000113  0.570227  1
  O  O108  1  0.654439  0.000111  0.570222  1
  O  O109  1  0.192670  0.394244  0.699522  1
  O  O110  1  0.807437  0.394228  0.800516  1
  O  O111  1  0.192669  0.394227  0.800519  1
  O  O112  1  0.807446  0.394233  0.699519  1
  O  O113  1  0.612056  0.424708  0.836045  1
  O  O114  1  0.388051  0.424703  0.836049  1
  O  O115  1  0.782528  0.394222  0.899624  1
  O  O116  1  0.217572  0.394222  0.899627  1
  O  O117  1  0.673756  0.314141  0.838637  1
  O  O118  1  0.326341  0.314138  0.838642  1
  O  O119  1  0.707876  0.108393  0.898873  1
  O  O120  1  0.292233  0.108400  0.898879  1
  O  O121  1  0.311403  0.090566  0.699217  1
  O  O122  1  0.688703  0.090565  0.800835  1
  O  O123  1  0.311409  0.090562  0.800843  1
  O  O124  1  0.688691  0.090571  0.699209  1
  O  O125  1  0.884636  0.123005  0.834426  1
  O  O126  1  0.115469  0.122998  0.834431  1
  O  O127  1  0.293525  0.197791  0.667967  1
  O  O128  1  0.706569  0.197788  0.832086  1
  O  O129  1  0.293528  0.197786  0.832085  1
  O  O130  1  0.706571  0.197793  0.667958  1
  O  O131  1  0.345607  0.259454  0.750024  1
  O  O132  1  0.654494  0.259450  0.750022  1
  O  O133  1  0.500047  0.244067  0.680914  1
  O  O134  1  0.500050  0.244060  0.819130  1
  O  O135  1  0.000049  0.419061  0.928384  1
  Si  Si136  1  0.000051  0.094767  0.811199  1
  Si  Si137  1  0.000049  0.094767  0.688858  1
  O  O138  1  0.158038  0.418194  0.999543  1
  O  O139  1  0.654436  0.000102  0.929830  1
  O  O140  1  0.500055  0.080507  0.930256  1
  O  O141  1  0.000056  0.411191  0.750022  1
  O  O142  1  0.157041  0.491956  0.750034  1
  O  O143  1  0.843062  0.491951  0.750023  1
  O  O144  1  0.500052  0.072949  0.750027  1
  O  O145  1  0.000045  0.024513  0.680326  1
  O  O146  1  0.000038  0.024512  0.819733  1
  O  O147  1  0.500049  0.442196  0.750022  1
  O  O148  1  0.000055  0.105186  0.750028  1
  Si  Si149  1  0.717841  0.380810  0.845846  1
  Si  Si150  1  0.282262  0.380808  0.845850  1
  Si  Si151  1  0.749247  0.131584  0.843072  1
  Si  Si152  1  0.250856  0.131583  0.843076  1
  Si  Si153  1  0.364599  0.253573  0.688827  1
  Si  Si154  1  0.635498  0.253567  0.811219  1
  Si  Si155  1  0.364602  0.253566  0.811221  1
  Si  Si156  1  0.635497  0.253572  0.688824  1
  Si  Si157  1  0.864761  0.430118  0.938711  1
  Si  Si158  1  0.135336  0.430118  0.938713  1
  Si  Si159  1  0.635212  0.069893  0.939685  1
  Si  Si160  1  0.364898  0.069900  0.939691  1
  Si  Si161  1  0.135417  0.421908  0.750024  1
  Si  Si162  1  0.864694  0.421904  0.750020  1
  Si  Si163  1  0.364747  0.061910  0.750029  1
  Si  Si164  1  0.635359  0.061912  0.750022  1
  Si  Si165  1  0.500056  0.454315  0.688756  1
  Si  Si166  1  0.500048  0.454311  0.811289  1
  O  O167  1  0.842055  0.418193  0.999541  1
  O  O168  1  0.345660  0.000110  0.929837  1
  O  O169  1  0.807434  0.605708  0.199530  1
  O  O170  1  0.192663  0.605718  0.300529  1
  O  O171  1  0.807423  0.605718  0.300528  1
  O  O172  1  0.192652  0.605722  0.199533  1
  O  O173  1  0.612043  0.575238  0.164005  1
  O  O174  1  0.388038  0.575241  0.164010  1
  O  O175  1  0.782520  0.605713  0.100423  1
  O  O176  1  0.217567  0.605717  0.100425  1
  O  O177  1  0.673767  0.685801  0.161410  1
  O  O178  1  0.326333  0.685807  0.161409  1
  O  O179  1  0.707877  0.891546  0.101179  1
  O  O180  1  0.292223  0.891557  0.101185  1
  O  O181  1  0.688688  0.909374  0.199215  1
  O  O182  1  0.311405  0.909384  0.300848  1
  O  O183  1  0.688701  0.909389  0.300841  1
  O  O184  1  0.311403  0.909381  0.199222  1
  O  O185  1  0.884634  0.876946  0.165629  1
  O  O186  1  0.115467  0.876943  0.165634  1
  O  O187  1  0.706578  0.802153  0.167963  1
  O  O188  1  0.293527  0.802158  0.332090  1
  O  O189  1  0.706582  0.802163  0.332083  1
  O  O190  1  0.293538  0.802160  0.167964  1
  O  O191  1  0.654496  0.740494  0.250025  1
  O  O192  1  0.345611  0.740499  0.250025  1
  O  O193  1  0.500055  0.755879  0.180915  1
  O  O194  1  0.500055  0.755893  0.319132  1
  O  O195  1  0.000045  0.580876  0.071667  1
  Si  Si196  1  0.000051  0.905186  0.311201  1
  Si  Si197  1  0.000049  0.905181  0.188860  1
  O  O198  1  0.842057  0.581743  0.000507  1
  O  O199  1  0.158037  0.581743  0.000510  1
  O  O200  1  0.500051  0.919438  0.069803  1
  O  O201  1  0.000042  0.588760  0.250035  1
  O  O202  1  0.843057  0.507994  0.250034  1
  O  O203  1  0.157034  0.508000  0.250025  1
  O  O204  1  0.500048  0.927000  0.250033  1
  O  O205  1  0.000053  0.975436  0.180324  1
  O  O206  1  0.000066  0.975440  0.319732  1
  O  O207  1  0.500050  0.557752  0.250033  1
  O  O208  1  0.000041  0.894764  0.250031  1
  Si  Si209  1  0.717837  0.619129  0.154201  1
  Si  Si210  1  0.282252  0.619136  0.154203  1
  Si  Si211  1  0.749249  0.868359  0.156981  1
  Si  Si212  1  0.250854  0.868365  0.156985  1
  Si  Si213  1  0.635503  0.746374  0.188828  1
  Si  Si214  1  0.364607  0.746382  0.311222  1
  Si  Si215  1  0.635503  0.746383  0.311222  1
  Si  Si216  1  0.364606  0.746378  0.188827  1
  Si  Si217  1  0.864758  0.569818  0.061337  1
  Si  Si218  1  0.135332  0.569819  0.061340  1
  Si  Si219  1  0.635208  0.930046  0.060368  1
  Si  Si220  1  0.364895  0.930054  0.060372  1
  Si  Si221  1  0.864682  0.578041  0.250032  1
  Si  Si222  1  0.135404  0.578047  0.250031  1
  Si  Si223  1  0.635355  0.938037  0.250026  1
  Si  Si224  1  0.364743  0.938038  0.250034  1
  Si  Si225  1  0.500042  0.545636  0.188766  1
  Si  Si226  1  0.500050  0.545633  0.311300  1
  O  O227  1  0.345672  0.999844  0.070228  1
  O  O228  1  0.654447  0.999836  0.070222  1
  O  O229  1  0.888050  0.924709  0.664002  1
  O  O230  1  0.388043  0.575236  0.336057  1
  O  O231  1  0.612046  0.575242  0.336061  1
  O  O232  1  0.112055  0.924712  0.664010  1
  O  O233  1  0.717574  0.894224  0.600421  1
  O  O234  1  0.217579  0.605739  0.399637  1
  O  O235  1  0.782527  0.605736  0.399636  1
  O  O236  1  0.282525  0.894227  0.600428  1
  O  O237  1  0.826346  0.814142  0.661410  1
  O  O238  1  0.326358  0.685807  0.338640  1
  O  O239  1  0.673753  0.685811  0.338645  1
  O  O240  1  0.173756  0.814144  0.661417  1
  O  O241  1  0.792219  0.608398  0.601180  1
  O  O242  1  0.292213  0.891546  0.398883  1
  O  O243  1  0.707857  0.891547  0.398878  1
  O  O244  1  0.207871  0.608402  0.601185  1
  O  O245  1  0.615464  0.623005  0.665632  1
  O  O246  1  0.115464  0.876944  0.334429  1
  O  O247  1  0.884634  0.876956  0.334435  1
  O  O248  1  0.384632  0.623002  0.665632  1
  O  O249  1  0.500047  0.919064  0.571668  1
  O  O250  1  0.000054  0.580900  0.428394  1
  Si  Si251  1  0.135206  0.569904  0.560370  1
  Si  Si252  1  0.635192  0.930047  0.439690  1
  Si  Si253  1  0.364878  0.930049  0.439694  1
  O  O254  1  0.658032  0.918199  0.500507  1
  O  O255  1  0.158043  0.581759  0.499554  1
  O  O256  1  0.842060  0.581754  0.499551  1
  O  O257  1  0.342050  0.918201  0.500512  1
  O  O258  1  0.000048  0.580514  0.569801  1
  O  O259  1  0.500034  0.919437  0.430261  1
  Si  Si260  1  0.782264  0.880812  0.654199  1
  Si  Si261  1  0.282266  0.619140  0.345856  1
  Si  Si262  1  0.717832  0.619141  0.345858  1
  Si  Si263  1  0.217839  0.880814  0.654207  1
  Si  Si264  1  0.750851  0.631586  0.656982  1
  Si  Si265  1  0.250849  0.868361  0.343079  1
  Si  Si266  1  0.749246  0.868368  0.343076  1
  Si  Si267  1  0.249245  0.631587  0.656986  1
  Si  Si268  1  0.635334  0.930122  0.561338  1
  Si  Si269  1  0.135341  0.569842  0.438722  1
  Si  Si270  1  0.864767  0.569838  0.438719  1
  Si  Si271  1  0.364760  0.930123  0.561342  1
  Si  Si272  1  0.864892  0.569901  0.560368  1
  O  O273  1  0.345647  0.999839  0.429836  1
  O  O274  1  0.654425  0.999836  0.429831  1
  O  O275  1  0.154438  0.500114  0.570222  1
  O  O276  1  0.845665  0.500110  0.570220  1
  O  O277  1  0.692667  0.894230  0.699529  1
  O  O278  1  0.307441  0.894231  0.800533  1
  O  O279  1  0.692671  0.894236  0.800525  1
  O  O280  1  0.307438  0.894230  0.699536  1
  O  O281  1  0.112055  0.924715  0.836053  1
  O  O282  1  0.888050  0.924705  0.836060  1
  O  O283  1  0.282512  0.894225  0.899640  1
  O  O284  1  0.717563  0.894216  0.899634  1
  O  O285  1  0.173743  0.814147  0.838648  1
  O  O286  1  0.826332  0.814139  0.838644  1
  O  O287  1  0.207874  0.608402  0.898884  1
  O  O288  1  0.792227  0.608400  0.898879  1
  O  O289  1  0.811405  0.590569  0.699216  1
  O  O290  1  0.188686  0.590572  0.800848  1
  O  O291  1  0.811393  0.590561  0.800842  1
  O  O292  1  0.188692  0.590570  0.699222  1
  O  O293  1  0.384630  0.623002  0.834431  1
  O  O294  1  0.615459  0.622996  0.834433  1
  O  O295  1  0.793529  0.697790  0.667965  1
  O  O296  1  0.206571  0.697795  0.832097  1
  O  O297  1  0.793516  0.697787  0.832086  1
  O  O298  1  0.206576  0.697792  0.667972  1
  O  O299  1  0.845604  0.759451  0.750027  1
  O  O300  1  0.154489  0.759454  0.750034  1
  O  O301  1  0.000052  0.744063  0.680922  1
  O  O302  1  0.000042  0.744061  0.819139  1
  O  O303  1  0.500040  0.919057  0.928394  1
  Si  Si304  1  0.500042  0.594763  0.811201  1
  Si  Si305  1  0.500049  0.594767  0.688860  1
  O  O306  1  0.342055  0.918202  0.999556  1
  O  O307  1  0.658036  0.918194  0.999550  1
  O  O308  1  0.000050  0.580509  0.930259  1
  O  O309  1  0.500056  0.911188  0.750031  1
  O  O310  1  0.657043  0.991953  0.750021  1
  O  O311  1  0.343066  0.991950  0.750030  1
  O  O312  1  0.000046  0.572950  0.750033  1
  O  O313  1  0.500052  0.524513  0.680323  1
  O  O314  1  0.500038  0.524508  0.819731  1
  O  O315  1  0.000038  0.942198  0.750031  1
  O  O316  1  0.500048  0.605184  0.750031  1
  Si  Si317  1  0.217833  0.880815  0.845859  1
  Si  Si318  1  0.782259  0.880810  0.845856  1
  Si  Si319  1  0.249245  0.631590  0.843081  1
  Si  Si320  1  0.750846  0.631582  0.843077  1
  Si  Si321  1  0.864603  0.753570  0.688830  1
  Si  Si322  1  0.135490  0.753572  0.811231  1
  Si  Si323  1  0.864594  0.753567  0.811225  1
  Si  Si324  1  0.135499  0.753571  0.688836  1
  Si  Si325  1  0.364755  0.930120  0.938724  1
  Si  Si326  1  0.635329  0.930113  0.938719  1
  Si  Si327  1  0.135206  0.569897  0.939692  1
  Si  Si328  1  0.864893  0.569897  0.939689  1
  Si  Si329  1  0.635416  0.921905  0.750027  1
  Si  Si330  1  0.364694  0.921903  0.750034  1
  Si  Si331  1  0.864740  0.561910  0.750029  1
  Si  Si332  1  0.135352  0.561915  0.750035  1
  Si  Si333  1  0.000047  0.954316  0.688764  1
  Si  Si334  1  0.000044  0.954315  0.811298  1
  O  O335  1  0.845660  0.500108  0.929828  1
  O  O336  1  0.154440  0.500109  0.929831  1
