# generated using pymatgen
data_SiO2
_symmetry_space_group_name_H-M   'P 1'
_cell_length_a   19.43965416
_cell_length_b   18.15235077
_cell_length_c   16.47174882
_cell_angle_alpha   90.00000000
_cell_angle_beta   90.00000000
_cell_angle_gamma   90.00000000
_symmetry_Int_Tables_number   1
_chemical_formula_structural   SiO2
_chemical_formula_sum   'Si92 O184'
_cell_volume   5812.47530198
_cell_formula_units_Z   92
loop_
 _symmetry_equiv_pos_site_id
 _symmetry_equiv_pos_as_xyz
  1  'x, y, z'
loop_
 _atom_site_type_symbol
 _atom_site_label
 _atom_site_symmetry_multiplicity
 _atom_site_fract_x
 _atom_site_fract_y
 _atom_site_fract_z
 _atom_site_occupancy
  Si  Si1  1  0.233846  0.119850  0.177082  1
  Si  Si2  1  0.233832  0.119846  0.822987  1
  Si  Si3  1  0.266236  0.380004  0.677067  1
  Si  Si4  1  0.266258  0.379999  0.322957  1
  Si  Si5  1  0.166757  0.380103  0.177834  1
  Si  Si6  1  0.166737  0.380104  0.822191  1
  Si  Si7  1  0.136906  0.231587  0.093979  1
  Si  Si8  1  0.136888  0.231595  0.906065  1
  O  O9  1  0.000038  0.069840  0.138739  1
  Si  Si10  1  0.000039  0.145375  0.906682  1
  Si  Si11  1  0.253894  0.499935  0.093709  1
  Si  Si12  1  0.080041  0.499925  0.261227  1
  Si  Si13  1  0.080022  0.499923  0.738789  1
  Si  Si14  1  0.179445  0.499916  0.406486  1
  Si  Si15  1  0.000052  0.145376  0.093385  1
  O  O16  1  0.284092  0.140522  0.249041  1
  O  O17  1  0.284080  0.140520  0.751030  1
  O  O18  1  0.215984  0.359331  0.749019  1
  O  O19  1  0.216005  0.359328  0.251005  1
  O  O20  1  0.177680  0.068532  0.215814  1
  O  O21  1  0.177667  0.068523  0.784259  1
  O  O22  1  0.322403  0.431324  0.715797  1
  O  O23  1  0.322425  0.431316  0.284224  1
  O  O24  1  0.196678  0.184992  0.132327  1
  O  O25  1  0.196657  0.184994  0.867721  1
  O  O26  1  0.303408  0.314855  0.632329  1
  O  O27  1  0.303425  0.314854  0.367707  1
  O  O28  1  0.275218  0.068911  0.116806  1
  O  O29  1  0.275203  0.068913  0.883271  1
  O  O30  1  0.224869  0.430939  0.616783  1
  O  O31  1  0.224888  0.430935  0.383238  1
  O  O32  1  0.108584  0.430524  0.214720  1
  O  O33  1  0.108565  0.430524  0.785298  1
  O  O34  1  0.210057  0.430451  0.118904  1
  O  O35  1  0.210036  0.430454  0.881118  1
  O  O36  1  0.290024  0.069396  0.618930  1
  O  O37  1  0.290030  0.069397  0.381147  1
  O  O38  1  0.137705  0.310005  0.133701  1
  O  O39  1  0.137687  0.310009  0.866333  1
  O  O40  1  0.000042  0.129046  0.000034  1
  O  O41  1  0.066656  0.191680  0.110521  1
  O  O42  1  0.066633  0.191693  0.889536  1
  O  O43  1  0.000041  0.069836  0.861336  1
  O  O44  1  0.146871  0.237604  0.000021  1
  O  O45  1  0.115783  0.499919  0.347221  1
  O  O46  1  0.000039  0.499933  0.268271  1
  O  O47  1  0.000020  0.499923  0.731756  1
  O  O48  1  0.319772  0.499931  0.150780  1
  O  O49  1  0.319746  0.499940  0.849235  1
  O  O50  1  0.162291  0.499912  0.500006  1
  Si  Si51  1  0.253872  0.499940  0.906310  1
  Si  Si52  1  0.179426  0.499919  0.593530  1
  O  O53  1  0.115760  0.499918  0.652793  1
  O  O54  1  0.270018  0.499943  0.000007  1
  Si  Si55  1  0.333324  0.119748  0.677855  1
  Si  Si56  1  0.333332  0.119744  0.322218  1
  Si  Si57  1  0.233843  0.879998  0.823000  1
  Si  Si58  1  0.233847  0.880000  0.177069  1
  Si  Si59  1  0.266255  0.619845  0.322973  1
  Si  Si60  1  0.266227  0.619853  0.677048  1
  Si  Si61  1  0.166729  0.619759  0.822172  1
  Si  Si62  1  0.166756  0.619757  0.177849  1
  Si  Si63  1  0.136885  0.768259  0.906067  1
  Si  Si64  1  0.136894  0.768265  0.093981  1
  O  O65  1  0.000057  0.930042  0.138723  1
  Si  Si66  1  0.147069  0.999921  0.261437  1
  Si  Si67  1  0.147057  0.999914  0.738633  1
  O  O68  1  0.000033  0.930036  0.861339  1
  Si  Si69  1  0.320645  0.999930  0.906518  1
  Si  Si70  1  0.000043  0.854493  0.906679  1
  Si  Si71  1  0.000053  0.854499  0.093381  1
  O  O72  1  0.284096  0.859320  0.751050  1
  O  O73  1  0.284096  0.859321  0.249023  1
  O  O74  1  0.216002  0.640526  0.251024  1
  O  O75  1  0.215974  0.640532  0.748998  1
  O  O76  1  0.177672  0.931308  0.784263  1
  O  O77  1  0.177679  0.931314  0.215804  1
  O  O78  1  0.322422  0.568533  0.284230  1
  O  O79  1  0.322395  0.568541  0.715785  1
  O  O80  1  0.196668  0.814853  0.867743  1
  O  O81  1  0.196673  0.814863  0.132310  1
  O  O82  1  0.303424  0.684985  0.367729  1
  O  O83  1  0.303404  0.684995  0.632303  1
  O  O84  1  0.275208  0.930942  0.883278  1
  O  O85  1  0.275221  0.930942  0.116798  1
  O  O86  1  0.224887  0.568901  0.383247  1
  O  O87  1  0.224860  0.568909  0.616771  1
  O  O88  1  0.108562  0.569330  0.785287  1
  O  O89  1  0.108586  0.569328  0.214729  1
  O  O90  1  0.210032  0.569419  0.881107  1
  O  O91  1  0.210059  0.569417  0.118914  1
  O  O92  1  0.290037  0.930431  0.381135  1
  O  O93  1  0.290030  0.930432  0.618942  1
  O  O94  1  0.137675  0.689853  0.866313  1
  O  O95  1  0.137697  0.689855  0.133723  1
  O  O96  1  0.000048  0.870821  0.000029  1
  O  O97  1  0.066641  0.808181  0.889531  1
  O  O98  1  0.066646  0.808177  0.110522  1
  O  O99  1  0.146852  0.762229  0.000024  1
  Si  Si100  1  0.000044  0.999934  0.806078  1
  O  O101  1  0.180316  0.999912  0.650815  1
  O  O102  1  0.230055  0.999903  0.500037  1
  Si  Si103  1  0.000056  0.999935  0.193992  1
  O  O104  1  0.066745  0.999930  0.248154  1
  O  O105  1  0.066733  0.999920  0.751915  1
  O  O106  1  0.180325  0.999913  0.349256  1
  Si  Si107  1  0.320661  0.999929  0.093562  1
  Si  Si108  1  0.246195  0.999910  0.406337  1
  Si  Si109  1  0.246189  0.999910  0.593738  1
  O  O110  1  0.433357  0.499929  0.251888  1
  O  O111  1  0.566707  0.499929  0.748157  1
  O  O112  1  0.353206  0.262252  0.500027  1
  O  O113  1  0.646860  0.262272  0.500044  1
  Si  Si114  1  0.636890  0.268273  0.406085  1
  Si  Si115  1  0.363180  0.268258  0.593985  1
  Si  Si116  1  0.363190  0.268259  0.406071  1
  Si  Si117  1  0.636871  0.268262  0.594001  1
  Si  Si118  1  0.647031  0.499939  0.761440  1
  Si  Si119  1  0.647047  0.499937  0.238611  1
  Si  Si120  1  0.353033  0.499927  0.238597  1
  Si  Si121  1  0.353009  0.499938  0.761420  1
  O  O122  1  0.500020  0.430027  0.638727  1
  O  O123  1  0.500034  0.430022  0.361325  1
  Si  Si124  1  0.500036  0.354485  0.406678  1
  Si  Si125  1  0.500024  0.354486  0.593381  1
  Si  Si126  1  0.500024  0.499929  0.693982  1
  Si  Si127  1  0.500038  0.499922  0.306065  1
  O  O128  1  0.608611  0.069360  0.285343  1
  O  O129  1  0.391496  0.069327  0.714747  1
  O  O130  1  0.391504  0.069322  0.285332  1
  O  O131  1  0.608592  0.069344  0.714766  1
  O  O132  1  0.637721  0.189852  0.366372  1
  O  O133  1  0.362375  0.189842  0.633712  1
  O  O134  1  0.362388  0.189838  0.366356  1
  O  O135  1  0.637691  0.189846  0.633727  1
  O  O136  1  0.500029  0.370816  0.500029  1
  O  O137  1  0.566631  0.308164  0.389541  1
  O  O138  1  0.433431  0.308165  0.610521  1
  O  O139  1  0.433444  0.308162  0.389537  1
  O  O140  1  0.566616  0.308164  0.610531  1
  O  O141  1  0.433334  0.499942  0.748143  1
  O  O142  1  0.566723  0.499927  0.251895  1
  O  O143  1  0.662324  0.000059  0.000051  1
  O  O144  1  0.384305  0.999930  0.847244  1
  Si  Si145  1  0.580046  0.999935  0.761269  1
  Si  Si146  1  0.420059  0.999928  0.238827  1
  O  O147  1  0.353226  0.737617  0.500023  1
  Si  Si148  1  0.636873  0.731607  0.593985  1
  Si  Si149  1  0.363196  0.731586  0.406067  1
  Si  Si150  1  0.363187  0.731591  0.593981  1
  Si  Si151  1  0.636880  0.731603  0.406070  1
  Si  Si152  1  0.333341  0.880094  0.322197  1
  Si  Si153  1  0.420042  0.999930  0.761251  1
  Si  Si154  1  0.500035  0.645367  0.593375  1
  Si  Si155  1  0.500043  0.645362  0.406672  1
  O  O156  1  0.608587  0.930517  0.714772  1
  O  O157  1  0.391513  0.930521  0.285318  1
  O  O158  1  0.391506  0.930522  0.714753  1
  O  O159  1  0.608602  0.930537  0.285323  1
  O  O160  1  0.637687  0.810011  0.633741  1
  O  O161  1  0.362397  0.809997  0.366327  1
  O  O162  1  0.362390  0.809998  0.633730  1
  O  O163  1  0.637698  0.810008  0.366319  1
  O  O164  1  0.500042  0.629038  0.500024  1
  O  O165  1  0.566621  0.691700  0.610519  1
  O  O166  1  0.433446  0.691675  0.389531  1
  O  O167  1  0.433435  0.691675  0.610518  1
  O  O168  1  0.566631  0.691692  0.389530  1
  O  O169  1  0.500040  0.569826  0.638718  1
  O  O170  1  0.500044  0.569820  0.361328  1
  O  O171  1  0.646840  0.737639  0.500027  1
  O  O172  1  0.384324  0.999928  0.152828  1
  O  O173  1  0.337801  0.999932  0.000038  1
  Si  Si174  1  0.580064  0.999953  0.238827  1
  O  O175  1  0.615807  0.999960  0.152834  1
  O  O176  1  0.615780  0.999935  0.847266  1
  O  O177  1  0.500062  0.999946  0.231802  1
  O  O178  1  0.500043  0.999937  0.768295  1
  Si  Si179  1  0.333337  0.880092  0.677871  1
  Si  Si180  1  0.766247  0.119865  0.823003  1
  Si  Si181  1  0.766275  0.119872  0.177102  1
  Si  Si182  1  0.733824  0.380007  0.322965  1
  Si  Si183  1  0.733810  0.380006  0.677092  1
  Si  Si184  1  0.833311  0.380108  0.822215  1
  Si  Si185  1  0.833323  0.380121  0.177842  1
  Si  Si186  1  0.863193  0.231604  0.906085  1
  Si  Si187  1  0.863211  0.231611  0.093997  1
  O  O188  1  0.884276  0.499923  0.652814  1
  O  O189  1  0.884297  0.499937  0.347240  1
  Si  Si190  1  0.746184  0.499954  0.093722  1
  O  O191  1  0.680295  0.499942  0.849255  1
  Si  Si192  1  0.920019  0.499928  0.738804  1
  Si  Si193  1  0.820614  0.499920  0.593546  1
  O  O194  1  0.853217  0.237599  0.000042  1
  O  O195  1  0.933471  0.191717  0.110527  1
  O  O196  1  0.837764  0.499918  0.500025  1
  O  O197  1  0.933445  0.191698  0.889541  1
  O  O198  1  0.715990  0.140527  0.751054  1
  O  O199  1  0.716022  0.140533  0.249056  1
  O  O200  1  0.784075  0.359336  0.251011  1
  O  O201  1  0.784062  0.359332  0.749045  1
  O  O202  1  0.822410  0.068536  0.784280  1
  O  O203  1  0.822439  0.068547  0.215830  1
  O  O204  1  0.677657  0.431325  0.284233  1
  O  O205  1  0.677645  0.431329  0.715818  1
  O  O206  1  0.803421  0.185007  0.867746  1
  O  O207  1  0.803452  0.185016  0.132366  1
  O  O208  1  0.696653  0.314869  0.367723  1
  O  O209  1  0.696636  0.314858  0.632359  1
  O  O210  1  0.724887  0.068919  0.883272  1
  O  O211  1  0.724909  0.068938  0.116825  1
  O  O212  1  0.775194  0.430945  0.383244  1
  O  O213  1  0.775178  0.430936  0.616802  1
  O  O214  1  0.891477  0.430532  0.785314  1
  O  O215  1  0.891489  0.430545  0.214736  1
  O  O216  1  0.790010  0.430460  0.881140  1
  O  O217  1  0.790023  0.430469  0.118912  1
  O  O218  1  0.710082  0.069408  0.381160  1
  O  O219  1  0.710060  0.069414  0.618940  1
  O  O220  1  0.862372  0.310019  0.866358  1
  O  O221  1  0.862394  0.310036  0.133701  1
  Si  Si222  1  0.746173  0.499947  0.906325  1
  Si  Si223  1  0.920037  0.499942  0.261244  1
  Si  Si224  1  0.820630  0.499928  0.406501  1
  O  O225  1  0.730043  0.499959  0.000025  1
  O  O226  1  0.680310  0.499947  0.150796  1
  Si  Si227  1  0.666756  0.119758  0.677870  1
  Si  Si228  1  0.666784  0.119761  0.322234  1
  Si  Si229  1  0.766282  0.880022  0.177103  1
  Si  Si230  1  0.766261  0.880011  0.822994  1
  Si  Si231  1  0.733811  0.619854  0.677062  1
  Si  Si232  1  0.733822  0.619857  0.322987  1
  Si  Si233  1  0.833323  0.619774  0.177866  1
  Si  Si234  1  0.833313  0.619766  0.822183  1
  Si  Si235  1  0.863208  0.768274  0.093989  1
  Si  Si236  1  0.863201  0.768260  0.906074  1
  Si  Si237  1  0.753914  0.999917  0.406351  1
  Si  Si238  1  0.853054  0.999944  0.261465  1
  Si  Si239  1  0.753894  0.999925  0.593749  1
  Si  Si240  1  0.679452  0.999940  0.906525  1
  Si  Si241  1  0.853031  0.999941  0.738638  1
  O  O242  1  0.853240  0.762233  0.000033  1
  O  O243  1  0.716018  0.859334  0.249040  1
  O  O244  1  0.716007  0.859325  0.751044  1
  O  O245  1  0.784066  0.640537  0.749009  1
  O  O246  1  0.784073  0.640542  0.251038  1
  O  O247  1  0.822452  0.931332  0.215838  1
  O  O248  1  0.822430  0.931325  0.784258  1
  O  O249  1  0.677641  0.568547  0.715807  1
  O  O250  1  0.677654  0.568545  0.284247  1
  O  O251  1  0.803441  0.814889  0.132318  1
  O  O252  1  0.803431  0.814870  0.867748  1
  O  O253  1  0.696644  0.684996  0.632307  1
  O  O254  1  0.696654  0.684996  0.367746  1
  O  O255  1  0.724906  0.930974  0.116841  1
  O  O256  1  0.724885  0.930945  0.883280  1
  O  O257  1  0.775174  0.568905  0.616787  1
  O  O258  1  0.775191  0.568912  0.383259  1
  O  O259  1  0.891493  0.569348  0.214749  1
  O  O260  1  0.891481  0.569336  0.785301  1
  O  O261  1  0.790023  0.569436  0.118926  1
  O  O262  1  0.790010  0.569426  0.881116  1
  O  O263  1  0.710055  0.930444  0.618949  1
  O  O264  1  0.710075  0.930438  0.381143  1
  O  O265  1  0.862388  0.689869  0.133742  1
  O  O266  1  0.862378  0.689854  0.866323  1
  O  O267  1  0.933460  0.808180  0.110527  1
  O  O268  1  0.933455  0.808164  0.889537  1
  O  O269  1  0.819769  0.999935  0.650823  1
  Si  Si270  1  0.679473  0.999958  0.093573  1
  O  O271  1  0.933356  0.999944  0.751911  1
  O  O272  1  0.770040  0.999912  0.500053  1
  O  O273  1  0.819791  0.999926  0.349281  1
  O  O274  1  0.933378  0.999931  0.248175  1
  Si  Si275  1  0.666752  0.880101  0.677879  1
  Si  Si276  1  0.666763  0.880109  0.322206  1
