# generated using pymatgen
data_SiO2
_symmetry_space_group_name_H-M   'P 1'
_cell_length_a   12.87085738
_cell_length_b   12.87068762
_cell_length_c   25.40930568
_cell_angle_alpha   90.00000000
_cell_angle_beta   90.00000000
_cell_angle_gamma   90.00000000
_symmetry_Int_Tables_number   1
_chemical_formula_structural   SiO2
_chemical_formula_sum   'Si64 O128'
_cell_volume   4209.22388215
_cell_formula_units_Z   64
loop_
 _symmetry_equiv_pos_site_id
 _symmetry_equiv_pos_as_xyz
  1  'x, y, z'
loop_
 _atom_site_type_symbol
 _atom_site_label
 _atom_site_symmetry_multiplicity
 _atom_site_fract_x
 _atom_site_fract_y
 _atom_site_fract_z
 _atom_site_occupancy
  O  O1  1  0.500081  0.131718  0.000032  1
  Si  Si2  1  0.621527  0.380627  0.000023  1
  Si  Si3  1  0.500059  0.118991  0.061451  1
  O  O4  1  0.000034  0.140520  0.071627  1
  O  O5  1  0.202048  0.191936  0.088371  1
  O  O6  1  0.798028  0.191845  0.088392  1
  O  O7  1  0.399439  0.168088  0.085532  1
  O  O8  1  0.600632  0.168126  0.085556  1
  O  O9  1  0.329844  0.330426  0.050301  1
  O  O10  1  0.670324  0.330407  0.050315  1
  O  O11  1  0.323752  0.306467  0.149125  1
  O  O12  1  0.676361  0.306466  0.149143  1
  O  O13  1  0.641461  0.499880  0.179469  1
  O  O14  1  0.500092  0.367290  0.000016  1
  Si  Si15  1  0.378660  0.380649  0.000015  1
  O  O16  1  0.359367  0.359237  0.250010  1
  O  O17  1  0.640661  0.359235  0.250027  1
  O  O18  1  0.500043  0.366949  0.181088  1
  O  O19  1  0.499987  0.358469  0.320580  1
  Si  Si20  1  0.309844  0.248707  0.094912  1
  Si  Si21  1  0.690272  0.248690  0.094934  1
  Si  Si22  1  0.119584  0.119539  0.060781  1
  Si  Si23  1  0.880493  0.119471  0.060786  1
  Si  Si24  1  0.379841  0.380319  0.189562  1
  Si  Si25  1  0.620242  0.380313  0.189574  1
  Si  Si26  1  0.619554  0.379687  0.310474  1
  Si  Si27  1  0.380423  0.379685  0.310463  1
  O  O28  1  0.642249  0.499844  0.000028  1
  O  O29  1  0.358635  0.499888  0.179454  1
  O  O30  1  0.357951  0.499868  0.000024  1
  O  O31  1  0.632915  0.499888  0.318956  1
  O  O32  1  0.367059  0.499886  0.318943  1
  O  O33  1  0.135485  0.132941  0.000010  1
  O  O34  1  0.864576  0.132870  0.000015  1
  O  O35  1  0.866979  0.135367  0.500021  1
  O  O36  1  0.133066  0.135323  0.500012  1
  O  O37  1  0.000036  0.139122  0.571296  1
  O  O38  1  0.000009  0.139135  0.428736  1
  Si  Si39  1  0.380775  0.378462  0.500012  1
  Si  Si40  1  0.619209  0.378470  0.500025  1
  Si  Si41  1  0.119119  0.499876  0.438610  1
  O  O42  1  0.808013  0.201919  0.588385  1
  O  O43  1  0.192060  0.201875  0.588378  1
  O  O44  1  0.807986  0.201939  0.411660  1
  O  O45  1  0.192034  0.201887  0.411648  1
  O  O46  1  0.831745  0.399336  0.414509  1
  O  O47  1  0.168220  0.399276  0.414512  1
  O  O48  1  0.831758  0.399315  0.585531  1
  O  O49  1  0.168240  0.399266  0.585540  1
  O  O50  1  0.669435  0.329674  0.449734  1
  O  O51  1  0.330559  0.329650  0.449721  1
  O  O52  1  0.669443  0.329643  0.550308  1
  O  O53  1  0.330559  0.329650  0.550302  1
  O  O54  1  0.693407  0.323603  0.350912  1
  O  O55  1  0.306559  0.323598  0.350895  1
  O  O56  1  0.693441  0.323587  0.649131  1
  O  O57  1  0.306614  0.323565  0.649130  1
  O  O58  1  0.000000  0.499889  0.572173  1
  O  O59  1  0.999994  0.499905  0.427883  1
  Si  Si60  1  0.119126  0.499867  0.561448  1
  Si  Si61  1  0.880869  0.499924  0.438607  1
  O  O62  1  0.499993  0.357751  0.500019  1
  Si  Si63  1  0.751167  0.309710  0.405126  1
  Si  Si64  1  0.248823  0.309676  0.405114  1
  Si  Si65  1  0.751185  0.309685  0.594915  1
  Si  Si66  1  0.248848  0.309662  0.594918  1
  Si  Si67  1  0.880396  0.119450  0.560791  1
  Si  Si68  1  0.119667  0.119412  0.560783  1
  Si  Si69  1  0.880371  0.119464  0.439249  1
  Si  Si70  1  0.119643  0.119422  0.439242  1
  O  O71  1  0.367423  0.499895  0.500011  1
  O  O72  1  0.868138  0.499921  0.500026  1
  O  O73  1  0.632553  0.499904  0.500036  1
  O  O74  1  0.131856  0.499868  0.500029  1
  Si  Si75  1  0.880876  0.499914  0.561444  1
  O  O76  1  0.358648  0.499832  0.820586  1
  O  O77  1  0.000036  0.140502  0.928396  1
  O  O78  1  0.202055  0.191922  0.911653  1
  O  O79  1  0.798025  0.191824  0.911645  1
  O  O80  1  0.399440  0.168066  0.914529  1
  O  O81  1  0.600630  0.168115  0.914506  1
  O  O82  1  0.329847  0.330434  0.949724  1
  O  O83  1  0.670342  0.330402  0.949735  1
  O  O84  1  0.323791  0.306405  0.850902  1
  O  O85  1  0.676366  0.306434  0.850905  1
  O  O86  1  0.641485  0.499849  0.820580  1
  O  O87  1  0.640704  0.359214  0.750016  1
  O  O88  1  0.359401  0.359196  0.750018  1
  O  O89  1  0.367088  0.499859  0.681094  1
  Si  Si90  1  0.620272  0.380283  0.810469  1
  O  O91  1  0.500071  0.366912  0.818943  1
  O  O92  1  0.500032  0.358455  0.679457  1
  Si  Si93  1  0.500060  0.118979  0.938613  1
  Si  Si94  1  0.309857  0.248686  0.905124  1
  Si  Si95  1  0.690270  0.248674  0.905119  1
  Si  Si96  1  0.119588  0.119522  0.939239  1
  Si  Si97  1  0.880498  0.119453  0.939245  1
  Si  Si98  1  0.619596  0.379677  0.689570  1
  Si  Si99  1  0.380464  0.379657  0.689567  1
  Si  Si100  1  0.379868  0.380268  0.810467  1
  O  O101  1  0.632952  0.499881  0.681093  1
  O  O102  1  0.860840  0.999828  0.071294  1
  O  O103  1  0.000124  0.859218  0.071631  1
  O  O104  1  0.798122  0.807794  0.088389  1
  O  O105  1  0.202140  0.807899  0.088380  1
  O  O106  1  0.600741  0.831630  0.085534  1
  O  O107  1  0.399544  0.831621  0.085542  1
  O  O108  1  0.670349  0.669279  0.050322  1
  O  O109  1  0.329859  0.669319  0.050313  1
  O  O110  1  0.676377  0.693285  0.149148  1
  O  O111  1  0.323771  0.693308  0.149135  1
  O  O112  1  0.139315  0.999909  0.071291  1
  Si  Si113  1  0.380425  0.620089  0.310472  1
  O  O114  1  0.500107  0.632421  0.000031  1
  O  O115  1  0.640671  0.640535  0.250032  1
  O  O116  1  0.359370  0.640538  0.250020  1
  O  O117  1  0.500052  0.632819  0.181099  1
  Si  Si118  1  0.379849  0.619452  0.189573  1
  O  O119  1  0.500126  0.868000  0.000028  1
  Si  Si120  1  0.500136  0.880739  0.061447  1
  Si  Si121  1  0.619557  0.620091  0.310480  1
  O  O122  1  0.499989  0.641305  0.320586  1
  Si  Si123  1  0.690330  0.751014  0.094929  1
  Si  Si124  1  0.309899  0.751063  0.094918  1
  Si  Si125  1  0.880572  0.880195  0.060789  1
  Si  Si126  1  0.119662  0.880266  0.060783  1
  Si  Si127  1  0.620252  0.619448  0.189580  1
  O  O128  1  0.500106  0.999864  0.072175  1
  Si  Si129  1  0.378673  0.619084  0.000028  1
  O  O130  1  0.135579  0.866856  0.000014  1
  Si  Si131  1  0.621539  0.619063  0.000031  1
  O  O132  1  0.864672  0.866769  0.000018  1
  O  O133  1  0.133029  0.864409  0.500015  1
  O  O134  1  0.866934  0.864462  0.500023  1
  O  O135  1  0.999995  0.860647  0.571297  1
  O  O136  1  0.999966  0.860660  0.428740  1
  O  O137  1  0.140638  0.999872  0.428398  1
  O  O138  1  0.192011  0.797852  0.588388  1
  O  O139  1  0.807967  0.797901  0.588391  1
  O  O140  1  0.191982  0.797858  0.411646  1
  O  O141  1  0.807930  0.797913  0.411662  1
  O  O142  1  0.168242  0.600466  0.414515  1
  O  O143  1  0.831756  0.600528  0.414520  1
  O  O144  1  0.168243  0.600459  0.585545  1
  O  O145  1  0.831763  0.600511  0.585538  1
  O  O146  1  0.330541  0.670155  0.449739  1
  O  O147  1  0.669417  0.670143  0.449741  1
  O  O148  1  0.330549  0.670116  0.550320  1
  O  O149  1  0.669430  0.670152  0.550319  1
  O  O150  1  0.306570  0.676176  0.350909  1
  O  O151  1  0.693398  0.676191  0.350917  1
  O  O152  1  0.306583  0.676162  0.649147  1
  O  O153  1  0.693419  0.676193  0.649142  1
  Si  Si154  1  0.619200  0.621338  0.500033  1
  Si  Si155  1  0.380766  0.621329  0.500025  1
  O  O156  1  0.499982  0.642049  0.500031  1
  Si  Si157  1  0.248815  0.690091  0.405123  1
  Si  Si158  1  0.751143  0.690123  0.405131  1
  Si  Si159  1  0.248825  0.690079  0.594933  1
  Si  Si160  1  0.751165  0.690120  0.594927  1
  Si  Si161  1  0.119634  0.880318  0.560786  1
  Si  Si162  1  0.880361  0.880359  0.560793  1
  Si  Si163  1  0.119607  0.880329  0.439245  1
  Si  Si164  1  0.880334  0.880372  0.439252  1
  O  O165  1  0.859365  0.999908  0.571638  1
  O  O166  1  0.140667  0.999863  0.571627  1
  O  O167  1  0.859334  0.999921  0.428406  1
  Si  Si168  1  0.379860  0.619401  0.810477  1
  O  O169  1  0.860846  0.999809  0.928738  1
  O  O170  1  0.139318  0.999890  0.928730  1
  O  O171  1  0.000127  0.859195  0.928400  1
  O  O172  1  0.798119  0.807774  0.911655  1
  O  O173  1  0.202150  0.807873  0.911654  1
  O  O174  1  0.600739  0.831620  0.914522  1
  O  O175  1  0.399550  0.831603  0.914507  1
  O  O176  1  0.670347  0.669275  0.949739  1
  O  O177  1  0.329865  0.669312  0.949740  1
  O  O178  1  0.676369  0.693259  0.850910  1
  O  O179  1  0.323789  0.693259  0.850917  1
  Si  Si180  1  0.620263  0.619416  0.810475  1
  O  O181  1  0.359387  0.640492  0.750030  1
  O  O182  1  0.640684  0.640516  0.750025  1
  O  O183  1  0.500061  0.632767  0.818955  1
  O  O184  1  0.500009  0.641285  0.679466  1
  Si  Si185  1  0.500133  0.880727  0.938609  1
  Si  Si186  1  0.690322  0.750997  0.905126  1
  Si  Si187  1  0.309912  0.751037  0.905126  1
  Si  Si188  1  0.880576  0.880178  0.939247  1
  Si  Si189  1  0.119667  0.880248  0.939242  1
  Si  Si190  1  0.380445  0.620061  0.689577  1
  Si  Si191  1  0.619578  0.620081  0.689576  1
  O  O192  1  0.500106  0.999854  0.927886  1
