# generated using pymatgen
data_SiO2
_symmetry_space_group_name_H-M   'P 1'
_cell_length_a   18.79643956
_cell_length_b   13.56323912
_cell_length_c   7.67548774
_cell_angle_alpha   90.00000000
_cell_angle_beta   102.32200000
_cell_angle_gamma   90.00000000
_symmetry_Int_Tables_number   1
_chemical_formula_structural   SiO2
_chemical_formula_sum   'Si32 O64'
_cell_volume   1911.71620958
_cell_formula_units_Z   32
loop_
 _symmetry_equiv_pos_site_id
 _symmetry_equiv_pos_as_xyz
  1  'x, y, z'
loop_
 _atom_site_type_symbol
 _atom_site_label
 _atom_site_symmetry_multiplicity
 _atom_site_fract_x
 _atom_site_fract_y
 _atom_site_fract_z
 _atom_site_occupancy
  O  O1  1  0.066855  0.635259  0.822156  1
  O  O2  1  0.566863  0.135256  0.822158  1
  O  O3  1  0.933247  0.635256  0.177991  1
  O  O4  1  0.433256  0.135260  0.177992  1
  O  O5  1  0.933256  0.364473  0.177992  1
  O  O6  1  0.433247  0.864478  0.177992  1
  O  O7  1  0.066863  0.364477  0.822157  1
  O  O8  1  0.566855  0.864473  0.822157  1
  O  O9  1  0.974734  0.499862  0.712601  1
  O  O10  1  0.474734  0.999870  0.712602  1
  O  O11  1  0.025376  0.499870  0.287546  1
  O  O12  1  0.525377  0.999863  0.287548  1
  O  O13  1  0.924137  0.678137  0.721986  1
  O  O14  1  0.424147  0.178152  0.721987  1
  O  O15  1  0.075964  0.678151  0.278161  1
  O  O16  1  0.575974  0.178137  0.278164  1
  O  O17  1  0.075974  0.321596  0.278163  1
  O  O18  1  0.575964  0.821581  0.278162  1
  O  O19  1  0.924147  0.321581  0.721986  1
  O  O20  1  0.424137  0.821596  0.721985  1
  O  O21  1  0.000052  0.628728  0.500073  1
  O  O22  1  0.500059  0.128728  0.500076  1
  O  O23  1  0.000059  0.371005  0.500074  1
  O  O24  1  0.500052  0.871005  0.500074  1
  O  O25  1  0.172567  0.665418  0.096379  1
  O  O26  1  0.672577  0.165398  0.096384  1
  O  O27  1  0.827534  0.665398  0.903764  1
  O  O28  1  0.327544  0.165418  0.903770  1
  O  O29  1  0.827544  0.334315  0.903768  1
  O  O30  1  0.327533  0.834335  0.903765  1
  O  O31  1  0.172577  0.334335  0.096383  1
  O  O32  1  0.672567  0.834315  0.096380  1
  O  O33  1  0.153989  0.499874  0.943880  1
  O  O34  1  0.653989  0.999858  0.943882  1
  O  O35  1  0.846122  0.499858  0.056267  1
  O  O36  1  0.346122  0.999874  0.056268  1
  O  O37  1  0.197925  0.634422  0.769455  1
  O  O38  1  0.697935  0.134404  0.769462  1
  O  O39  1  0.802176  0.634404  0.230687  1
  O  O40  1  0.302185  0.134422  0.230693  1
  O  O41  1  0.802185  0.365311  0.230692  1
  O  O42  1  0.302176  0.865329  0.230687  1
  O  O43  1  0.197935  0.365329  0.769461  1
  O  O44  1  0.697925  0.865310  0.769456  1
  O  O45  1  0.686582  0.690372  0.320774  1
  O  O46  1  0.186593  0.190394  0.320781  1
  O  O47  1  0.313517  0.690394  0.679367  1
  O  O48  1  0.813528  0.190373  0.679372  1
  O  O49  1  0.313528  0.309359  0.679372  1
  O  O50  1  0.813517  0.809339  0.679366  1
  O  O51  1  0.686593  0.309338  0.320782  1
  O  O52  1  0.186582  0.809360  0.320776  1
  O  O53  1  0.795986  0.635787  0.559269  1
  O  O54  1  0.295996  0.135807  0.559277  1
  O  O55  1  0.204115  0.635807  0.440871  1
  O  O56  1  0.704124  0.135787  0.440879  1
  O  O57  1  0.204124  0.363947  0.440878  1
  O  O58  1  0.704115  0.863928  0.440871  1
  O  O59  1  0.795996  0.363926  0.559276  1
  O  O60  1  0.295986  0.863947  0.559271  1
  O  O61  1  0.731380  0.499855  0.353300  1
  O  O62  1  0.231380  0.999878  0.353300  1
  O  O63  1  0.268731  0.499878  0.646848  1
  O  O64  1  0.768731  0.999855  0.646849  1
  Si  Si65  1  0.841161  0.699360  0.716506  1
  Si  Si66  1  0.341171  0.199380  0.716511  1
  Si  Si67  1  0.158939  0.699380  0.283637  1
  Si  Si68  1  0.658950  0.199360  0.283643  1
  Si  Si69  1  0.158950  0.300373  0.283642  1
  Si  Si70  1  0.658939  0.800352  0.283639  1
  Si  Si71  1  0.841171  0.300353  0.716510  1
  Si  Si72  1  0.341160  0.800373  0.716506  1
  Si  Si73  1  0.990788  0.613567  0.695469  1
  Si  Si74  1  0.490794  0.113573  0.695472  1
  Si  Si75  1  0.009316  0.613573  0.304676  1
  Si  Si76  1  0.509323  0.113567  0.304680  1
  Si  Si77  1  0.009323  0.386166  0.304678  1
  Si  Si78  1  0.509316  0.886160  0.304677  1
  Si  Si79  1  0.990794  0.386160  0.695471  1
  Si  Si80  1  0.490788  0.886166  0.695470  1
  Si  Si81  1  0.149493  0.613578  0.908841  1
  Si  Si82  1  0.649500  0.113563  0.908842  1
  Si  Si83  1  0.850610  0.613563  0.091306  1
  Si  Si84  1  0.350617  0.113578  0.091308  1
  Si  Si85  1  0.850617  0.386154  0.091307  1
  Si  Si86  1  0.350610  0.886170  0.091307  1
  Si  Si87  1  0.149500  0.386170  0.908842  1
  Si  Si88  1  0.649493  0.886154  0.908842  1
  Si  Si89  1  0.751292  0.613255  0.365344  1
  Si  Si90  1  0.251302  0.113276  0.365351  1
  Si  Si91  1  0.248809  0.613276  0.634797  1
  Si  Si92  1  0.748818  0.113256  0.634805  1
  Si  Si93  1  0.248818  0.386477  0.634804  1
  Si  Si94  1  0.748808  0.886457  0.634798  1
  Si  Si95  1  0.751302  0.386457  0.365350  1
  Si  Si96  1  0.251292  0.886477  0.365344  1
