# generated using pymatgen
data_SiO2
_symmetry_space_group_name_H-M   'P 1'
_cell_length_a   26.79699743
_cell_length_b   26.79739289
_cell_length_c   12.91472158
_cell_angle_alpha   90.00000000
_cell_angle_beta   90.00000000
_cell_angle_gamma   90.00000000
_symmetry_Int_Tables_number   1
_chemical_formula_structural   SiO2
_chemical_formula_sum   'Si136 O272'
_cell_volume   9273.92813519
_cell_formula_units_Z   136
loop_
 _symmetry_equiv_pos_site_id
 _symmetry_equiv_pos_as_xyz
  1  'x, y, z'
loop_
 _atom_site_type_symbol
 _atom_site_label
 _atom_site_symmetry_multiplicity
 _atom_site_fract_x
 _atom_site_fract_y
 _atom_site_fract_z
 _atom_site_occupancy
  O  O1  1  0.068375  0.328255  0.000057  1
  O  O2  1  0.431689  0.171724  0.500053  1
  O  O3  1  0.328299  0.068335  0.000043  1
  Si  Si4  1  0.057487  0.057445  0.000055  1
  Si  Si5  1  0.057541  0.057497  0.619191  1
  O  O6  1  0.068002  0.261844  0.141945  1
  O  O7  1  0.432055  0.238131  0.641926  1
  O  O8  1  0.261879  0.067961  0.858162  1
  O  O9  1  0.432053  0.238139  0.358148  1
  O  O10  1  0.068003  0.261841  0.858172  1
  O  O11  1  0.261885  0.067960  0.141927  1
  O  O12  1  0.415797  0.141931  0.692338  1
  O  O13  1  0.358093  0.084214  0.807742  1
  O  O14  1  0.415808  0.141925  0.307726  1
  O  O15  1  0.358092  0.084223  0.192347  1
  O  O16  1  0.091950  0.163696  0.173228  1
  Si  Si17  1  0.204616  0.057496  0.119809  1
  O  O18  1  0.163732  0.091915  0.826879  1
  Si  Si19  1  0.057541  0.057496  0.380919  1
  O  O20  1  0.091949  0.163696  0.826890  1
  O  O21  1  0.163737  0.091914  0.173221  1
  O  O22  1  0.064374  0.198223  0.000058  1
  O  O23  1  0.435698  0.301754  0.500060  1
  O  O24  1  0.198258  0.064335  0.000044  1
  Si  Si25  1  0.409546  0.090469  0.250049  1
  Si  Si26  1  0.057540  0.204577  0.880286  1
  Si  Si27  1  0.409542  0.090475  0.750039  1
  O  O28  1  0.067790  0.067745  0.500055  1
  Si  Si29  1  0.442514  0.295410  0.380286  1
  Si  Si30  1  0.204612  0.057495  0.880280  1
  O  O31  1  0.088414  0.088370  0.299772  1
  O  O32  1  0.088412  0.088375  0.700334  1
  O  O33  1  0.078941  0.078903  0.102942  1
  O  O34  1  0.078942  0.078902  0.897164  1
  O  O35  1  0.418633  0.047822  0.669080  1
  O  O36  1  0.452195  0.081400  0.831009  1
  O  O37  1  0.418624  0.047819  0.331024  1
  O  O38  1  0.452197  0.081397  0.169065  1
  O  O39  1  0.000031  0.066390  0.000058  1
  Si  Si40  1  0.107187  0.107152  0.808935  1
  Si  Si41  1  0.107188  0.107149  0.191168  1
  Si  Si42  1  0.057827  0.319137  0.119199  1
  Si  Si43  1  0.442265  0.180844  0.619193  1
  Si  Si44  1  0.319174  0.057761  0.880895  1
  Si  Si45  1  0.442239  0.180842  0.380901  1
  Si  Si46  1  0.057824  0.319134  0.880915  1
  Si  Si47  1  0.319178  0.057764  0.119191  1
  Si  Si48  1  0.057541  0.204579  0.119830  1
  Si  Si49  1  0.442523  0.295397  0.619824  1
  O  O50  1  0.000044  0.326920  0.868624  1
  O  O51  1  0.000045  0.326917  0.131500  1
  O  O52  1  0.000033  0.066219  0.363383  1
  O  O53  1  0.000036  0.195542  0.140984  1
  O  O54  1  0.000035  0.195541  0.859147  1
  O  O55  1  0.000034  0.066223  0.636718  1
  O  O56  1  0.171757  0.568327  0.500055  1
  O  O57  1  0.171746  0.431628  0.500048  1
  O  O58  1  0.408109  0.663692  0.326880  1
  O  O59  1  0.000017  0.499990  0.368561  1
  O  O60  1  0.173156  0.499984  0.631494  1
  Si  Si61  1  0.442570  0.442536  0.500044  1
  O  O62  1  0.173162  0.499986  0.368613  1
  O  O63  1  0.238172  0.567960  0.641936  1
  O  O64  1  0.238171  0.432048  0.358153  1
  O  O65  1  0.238176  0.567966  0.358163  1
  O  O66  1  0.238170  0.432050  0.641936  1
  O  O67  1  0.084257  0.358052  0.192367  1
  O  O68  1  0.141959  0.584209  0.692352  1
  O  O69  1  0.084245  0.641919  0.807734  1
  O  O70  1  0.141961  0.415755  0.307740  1
  O  O71  1  0.084256  0.358049  0.807748  1
  O  O72  1  0.141962  0.584209  0.307755  1
  O  O73  1  0.084250  0.641923  0.192364  1
  O  O74  1  0.141956  0.415754  0.692352  1
  O  O75  1  0.336316  0.591908  0.673224  1
  O  O76  1  0.336314  0.408055  0.326877  1
  O  O77  1  0.336319  0.591910  0.326887  1
  O  O78  1  0.336318  0.408058  0.673220  1
  O  O79  1  0.301789  0.564329  0.500057  1
  O  O80  1  0.301796  0.435634  0.500051  1
  O  O81  1  0.304481  0.499990  0.640966  1
  O  O82  1  0.304488  0.499991  0.359128  1
  O  O83  1  0.432263  0.432226  0.000040  1
  O  O84  1  0.432263  0.567754  0.000053  1
  Si  Si85  1  0.090514  0.590472  0.250055  1
  O  O86  1  0.408116  0.336288  0.673212  1
  O  O87  1  0.433794  0.499993  0.863371  1
  Si  Si88  1  0.442566  0.557446  0.500048  1
  O  O89  1  0.408103  0.663690  0.673210  1
  O  O90  1  0.433791  0.499989  0.136730  1
  O  O91  1  0.411652  0.411607  0.799751  1
  O  O92  1  0.411646  0.588377  0.799770  1
  O  O93  1  0.411642  0.588370  0.200333  1
  O  O94  1  0.411650  0.411603  0.200322  1
  O  O95  1  0.421121  0.421072  0.602930  1
  O  O96  1  0.421113  0.578903  0.602942  1
  O  O97  1  0.421116  0.578906  0.397163  1
  O  O98  1  0.421123  0.421074  0.397158  1
  O  O99  1  0.081428  0.452159  0.169071  1
  O  O100  1  0.047858  0.581397  0.669077  1
  O  O101  1  0.081429  0.547820  0.831023  1
  O  O102  1  0.047861  0.418581  0.331039  1
  O  O103  1  0.081433  0.452160  0.831021  1
  O  O104  1  0.047862  0.581401  0.331028  1
  O  O105  1  0.081428  0.547826  0.169081  1
  O  O106  1  0.047860  0.418584  0.669079  1
  O  O107  1  0.408102  0.336294  0.326848  1
  O  O108  1  0.433623  0.499991  0.500037  1
  O  O109  1  0.000024  0.499988  0.631560  1
  O  O110  1  0.000023  0.431374  0.500055  1
  O  O111  1  0.000021  0.568608  0.500055  1
  O  O112  1  0.068638  0.499988  0.000059  1
  Si  Si113  1  0.180880  0.557761  0.619202  1
  Si  Si114  1  0.180879  0.442204  0.380895  1
  Si  Si115  1  0.180884  0.557765  0.380908  1
  Si  Si116  1  0.180876  0.442204  0.619203  1
  Si  Si117  1  0.295438  0.557495  0.619826  1
  Si  Si118  1  0.295442  0.442486  0.380286  1
  Si  Si119  1  0.295441  0.557496  0.380285  1
  Si  Si120  1  0.295441  0.442485  0.619812  1
  Si  Si121  1  0.090505  0.409503  0.750061  1
  Si  Si122  1  0.090509  0.590469  0.750055  1
  Si  Si123  1  0.058338  0.499988  0.881276  1
  Si  Si124  1  0.090505  0.409507  0.250045  1
  Si  Si125  1  0.000022  0.558297  0.618842  1
  Si  Si126  1  0.058335  0.499994  0.118836  1
  Si  Si127  1  0.442514  0.442485  0.880904  1
  Si  Si128  1  0.442514  0.557500  0.880917  1
  Si  Si129  1  0.442514  0.557496  0.119189  1
  Si  Si130  1  0.442517  0.442482  0.119180  1
  Si  Si131  1  0.392871  0.392829  0.691155  1
  Si  Si132  1  0.392863  0.607148  0.691169  1
  Si  Si133  1  0.392866  0.607149  0.308933  1
  Si  Si134  1  0.392867  0.392839  0.308922  1
  Si  Si135  1  0.000030  0.441682  0.381277  1
  Si  Si136  1  0.000029  0.441680  0.618837  1
  Si  Si137  1  0.000033  0.558298  0.381273  1
  O  O138  1  0.000027  0.499990  0.131558  1
  O  O139  1  0.000028  0.499982  0.868551  1
  O  O140  1  0.328292  0.931643  0.000045  1
  O  O141  1  0.431677  0.828252  0.500038  1
  O  O142  1  0.068358  0.671728  0.000067  1
  Si  Si143  1  0.057484  0.942535  0.000062  1
  O  O144  1  0.000003  0.673206  0.131526  1
  O  O145  1  0.261879  0.932018  0.141939  1
  O  O146  1  0.432066  0.761848  0.358167  1
  O  O147  1  0.068002  0.738134  0.858163  1
  O  O148  1  0.261876  0.932013  0.858160  1
  O  O149  1  0.067992  0.738128  0.141942  1
  O  O150  1  0.432056  0.761839  0.641923  1
  O  O151  1  0.358090  0.915759  0.192357  1
  O  O152  1  0.415794  0.858053  0.307741  1
  O  O153  1  0.358090  0.915757  0.807740  1
  O  O154  1  0.415796  0.858055  0.692353  1
  O  O155  1  0.163730  0.908062  0.173225  1
  O  O156  1  0.000027  0.933585  0.000060  1
  O  O157  1  0.091950  0.836289  0.826869  1
  O  O158  1  0.163733  0.908056  0.826886  1
  O  O159  1  0.091936  0.836278  0.173222  1
  O  O160  1  0.000029  0.933756  0.636730  1
  O  O161  1  0.198253  0.935641  0.000049  1
  O  O162  1  0.435687  0.698226  0.500043  1
  O  O163  1  0.064354  0.801752  0.000070  1
  O  O164  1  0.000020  0.804437  0.140975  1
  O  O165  1  0.195570  0.999988  0.859133  1
  O  O166  1  0.067794  0.932227  0.500060  1
  O  O167  1  0.000029  0.933759  0.363390  1
  O  O168  1  0.066266  0.999992  0.636728  1
  O  O169  1  0.088413  0.911602  0.299783  1
  O  O170  1  0.088407  0.911602  0.700322  1
  O  O171  1  0.078937  0.921075  0.102945  1
  O  O172  1  0.078934  0.921072  0.897177  1
  O  O173  1  0.452195  0.918587  0.169079  1
  O  O174  1  0.418623  0.952158  0.331013  1
  O  O175  1  0.452196  0.918581  0.831010  1
  O  O176  1  0.418625  0.952155  0.669080  1
  O  O177  1  0.195574  0.999989  0.140969  1
  O  O178  1  0.431416  0.999985  0.500045  1
  Si  Si179  1  0.319174  0.942209  0.119192  1
  Si  Si180  1  0.442254  0.819140  0.380896  1
  Si  Si181  1  0.057819  0.680840  0.880914  1
  Si  Si182  1  0.319171  0.942208  0.880896  1
  Si  Si183  1  0.057780  0.680841  0.119211  1
  Si  Si184  1  0.442225  0.819134  0.619187  1
  Si  Si185  1  0.204609  0.942481  0.119813  1
  Si  Si186  1  0.442519  0.704580  0.380275  1
  Si  Si187  1  0.057539  0.795405  0.880304  1
  Si  Si188  1  0.204610  0.942479  0.880285  1
  Si  Si189  1  0.057524  0.795394  0.119834  1
  Si  Si190  1  0.442508  0.704574  0.619811  1
  Si  Si191  1  0.057538  0.942482  0.380922  1
  Si  Si192  1  0.057535  0.942485  0.619194  1
  Si  Si193  1  0.107180  0.892823  0.191168  1
  Si  Si194  1  0.107182  0.892835  0.808935  1
  Si  Si195  1  0.409543  0.909507  0.250047  1
  Si  Si196  1  0.409543  0.909505  0.750047  1
  O  O197  1  0.066263  0.999990  0.363383  1
  O  O198  1  0.066433  0.999991  0.000058  1
  O  O199  1  0.326931  0.999986  0.131485  1
  O  O200  1  0.326933  0.999984  0.868606  1
  Si  Si201  1  0.441721  0.999987  0.381265  1
  Si  Si202  1  0.441717  0.999987  0.618831  1
  O  O203  1  0.000047  0.673031  0.868645  1
  O  O204  1  0.000030  0.804451  0.859143  1
  O  O205  1  0.671747  0.068343  0.000063  1
  O  O206  1  0.931669  0.328267  0.000059  1
  O  O207  1  0.568389  0.171713  0.499984  1
  Si  Si208  1  0.590507  0.090488  0.250071  1
  O  O209  1  0.500011  0.173029  0.368628  1
  O  O210  1  0.738176  0.067966  0.141940  1
  O  O211  1  0.932036  0.261829  0.858169  1
  O  O212  1  0.568064  0.238143  0.358171  1
  O  O213  1  0.738164  0.067925  0.858152  1
  O  O214  1  0.567880  0.238108  0.641940  1
  O  O215  1  0.932037  0.261829  0.141963  1
  O  O216  1  0.641956  0.084219  0.192368  1
  O  O217  1  0.584258  0.141933  0.307788  1
  O  O218  1  0.641970  0.084226  0.807739  1
  O  O219  1  0.584275  0.141918  0.692390  1
  O  O220  1  0.836326  0.091917  0.173239  1
  O  O221  1  0.908106  0.163692  0.826889  1
  Si  Si222  1  0.942525  0.057494  0.380915  1
  O  O223  1  0.836322  0.091913  0.826879  1
  Si  Si224  1  0.500022  0.058296  0.881267  1
  O  O225  1  0.908105  0.163697  0.173236  1
  O  O226  1  0.801794  0.064339  0.000050  1
  O  O227  1  0.935680  0.198218  0.000059  1
  O  O228  1  0.564385  0.301754  0.500063  1
  Si  Si229  1  0.942575  0.057446  0.000056  1
  O  O230  1  0.500032  0.068605  0.000052  1
  Si  Si231  1  0.590511  0.090456  0.750055  1
  O  O232  1  0.932275  0.067747  0.500055  1
  Si  Si233  1  0.892873  0.107149  0.191175  1
  O  O234  1  0.911642  0.088372  0.299784  1
  O  O235  1  0.911643  0.088375  0.700331  1
  O  O236  1  0.921116  0.078900  0.102941  1
  O  O237  1  0.921116  0.078896  0.897165  1
  O  O238  1  0.547865  0.081395  0.169088  1
  O  O239  1  0.581434  0.047822  0.331010  1
  O  O240  1  0.547852  0.081394  0.831021  1
  O  O241  1  0.581432  0.047812  0.669063  1
  O  O242  1  0.500026  0.304450  0.359133  1
  Si  Si243  1  0.942525  0.057496  0.619199  1
  Si  Si244  1  0.892868  0.107147  0.808942  1
  Si  Si245  1  0.680876  0.057764  0.119217  1
  Si  Si246  1  0.942265  0.319128  0.880904  1
  Si  Si247  1  0.557792  0.180855  0.380863  1
  Si  Si248  1  0.680875  0.057775  0.880910  1
  Si  Si249  1  0.557831  0.180813  0.619138  1
  Si  Si250  1  0.942266  0.319129  0.119215  1
  Si  Si251  1  0.795448  0.057499  0.119817  1
  Si  Si252  1  0.942526  0.204566  0.880302  1
  Si  Si253  1  0.557542  0.295408  0.380297  1
  Si  Si254  1  0.795438  0.057498  0.880283  1
  Si  Si255  1  0.557533  0.295381  0.619820  1
  Si  Si256  1  0.942528  0.204567  0.119817  1
  Si  Si257  1  0.500035  0.058297  0.118836  1
  O  O258  1  0.500032  0.304430  0.640966  1
  O  O259  1  0.500053  0.173185  0.631516  1
  O  O260  1  0.828301  0.431634  0.500056  1
  O  O261  1  0.828302  0.568340  0.500067  1
  O  O262  1  0.826931  0.499986  0.631518  1
  O  O263  1  0.500020  0.566223  0.136738  1
  O  O264  1  0.826943  0.499990  0.368612  1
  O  O265  1  0.761881  0.432011  0.641955  1
  O  O266  1  0.761881  0.567967  0.358174  1
  O  O267  1  0.761880  0.432014  0.358170  1
  O  O268  1  0.761878  0.567960  0.641967  1
  O  O269  1  0.915774  0.641920  0.192393  1
  O  O270  1  0.858086  0.415747  0.692369  1
  O  O271  1  0.915788  0.358048  0.807763  1
  O  O272  1  0.858078  0.584225  0.307765  1
  O  O273  1  0.915795  0.641931  0.807797  1
  O  O274  1  0.858088  0.415756  0.307759  1
  O  O275  1  0.915788  0.358047  0.192363  1
  O  O276  1  0.858093  0.584219  0.692391  1
  O  O277  1  0.663730  0.408066  0.673231  1
  O  O278  1  0.663730  0.591910  0.326892  1
  O  O279  1  0.663736  0.408066  0.326877  1
  O  O280  1  0.663722  0.591915  0.673241  1
  O  O281  1  0.698265  0.435644  0.500051  1
  O  O282  1  0.698255  0.564335  0.500059  1
  O  O283  1  0.695574  0.499988  0.640983  1
  O  O284  1  0.695581  0.499993  0.359150  1
  O  O285  1  0.567791  0.567753  0.000068  1
  O  O286  1  0.567792  0.432227  0.000064  1
  O  O287  1  0.566268  0.499994  0.863387  1
  O  O288  1  0.566261  0.499989  0.136732  1
  O  O289  1  0.588413  0.588375  0.799796  1
  O  O290  1  0.588416  0.411613  0.799793  1
  O  O291  1  0.588410  0.411604  0.200320  1
  O  O292  1  0.588410  0.588363  0.200342  1
  O  O293  1  0.578941  0.578899  0.602949  1
  O  O294  1  0.578941  0.421080  0.602934  1
  O  O295  1  0.578943  0.421078  0.397175  1
  O  O296  1  0.578945  0.578899  0.397189  1
  O  O297  1  0.918613  0.547817  0.169074  1
  O  O298  1  0.952199  0.418580  0.669079  1
  O  O299  1  0.918613  0.452155  0.831045  1
  O  O300  1  0.952204  0.581398  0.331027  1
  O  O301  1  0.918617  0.547821  0.831034  1
  O  O302  1  0.952202  0.418582  0.331034  1
  O  O303  1  0.918617  0.452155  0.169079  1
  O  O304  1  0.952190  0.581395  0.669090  1
  O  O305  1  0.500024  0.433588  0.500039  1
  O  O306  1  0.566432  0.499992  0.500067  1
  Si  Si307  1  0.557481  0.442536  0.500054  1
  O  O308  1  0.591958  0.336266  0.673233  1
  Si  Si309  1  0.557478  0.557447  0.500067  1
  O  O310  1  0.931406  0.499983  0.000059  1
  Si  Si311  1  0.819176  0.442208  0.619205  1
  Si  Si312  1  0.819171  0.557766  0.380923  1
  Si  Si313  1  0.819174  0.442212  0.380913  1
  Si  Si314  1  0.819178  0.557763  0.619217  1
  Si  Si315  1  0.704613  0.442480  0.619815  1
  Si  Si316  1  0.704614  0.557502  0.380296  1
  Si  Si317  1  0.704614  0.442484  0.380290  1
  Si  Si318  1  0.704606  0.557498  0.619826  1
  Si  Si319  1  0.941717  0.499989  0.881275  1
  Si  Si320  1  0.941717  0.499984  0.118838  1
  Si  Si321  1  0.557530  0.557501  0.880927  1
  Si  Si322  1  0.557530  0.442487  0.880926  1
  Si  Si323  1  0.557530  0.442483  0.119198  1
  Si  Si324  1  0.557529  0.557495  0.119203  1
  Si  Si325  1  0.607178  0.607151  0.691183  1
  Si  Si326  1  0.607177  0.392830  0.691168  1
  Si  Si327  1  0.607187  0.392835  0.308931  1
  Si  Si328  1  0.607183  0.607145  0.308946  1
  Si  Si329  1  0.909536  0.590459  0.250076  1
  Si  Si330  1  0.909548  0.409504  0.750059  1
  Si  Si331  1  0.909547  0.590483  0.750082  1
  Si  Si332  1  0.909546  0.409506  0.250061  1
  O  O333  1  0.591951  0.663701  0.673229  1
  O  O334  1  0.591953  0.663693  0.326895  1
  O  O335  1  0.591963  0.336284  0.326881  1
  O  O336  1  0.500021  0.566393  0.500058  1
  O  O337  1  0.500021  0.566230  0.863384  1
  O  O338  1  0.500022  0.433759  0.863377  1
  O  O339  1  0.500022  0.433752  0.136725  1
  O  O340  1  0.568384  0.828264  0.500060  1
  O  O341  1  0.931660  0.671711  0.999995  1
  O  O342  1  0.671754  0.931642  0.000044  1
  Si  Si343  1  0.942522  0.942481  0.380929  1
  O  O344  1  0.500032  0.826843  0.368602  1
  O  O345  1  0.568015  0.761830  0.641949  1
  O  O346  1  0.932182  0.738104  0.141943  1
  O  O347  1  0.738176  0.932014  0.858168  1
  O  O348  1  0.931989  0.738148  0.858174  1
  O  O349  1  0.567935  0.761862  0.358177  1
  O  O350  1  0.738173  0.932014  0.141936  1
  O  O351  1  0.584259  0.858050  0.692350  1
  O  O352  1  0.641967  0.915763  0.807759  1
  O  O353  1  0.584272  0.858052  0.307737  1
  O  O354  1  0.641968  0.915752  0.192360  1
  O  O355  1  0.500006  0.826918  0.631481  1
  O  O356  1  0.908093  0.836272  0.173236  1
  O  O357  1  0.836318  0.908071  0.826882  1
  O  O358  1  0.908095  0.836287  0.826883  1
  Si  Si359  1  0.892864  0.892836  0.808937  1
  O  O360  1  0.836321  0.908070  0.173235  1
  O  O361  1  0.564376  0.698211  0.500050  1
  O  O362  1  0.935666  0.801757  0.000065  1
  O  O363  1  0.801791  0.935644  0.000051  1
  O  O364  1  0.933627  0.999993  0.000059  1
  Si  Si365  1  0.500027  0.941683  0.118830  1
  Si  Si366  1  0.942571  0.942536  0.000060  1
  Si  Si367  1  0.892872  0.892832  0.191172  1
  O  O368  1  0.932275  0.932232  0.500067  1
  O  O369  1  0.673153  0.999994  0.868590  1
  Si  Si370  1  0.590512  0.909508  0.250049  1
  O  O371  1  0.804479  0.999991  0.859137  1
  O  O372  1  0.911646  0.911610  0.299780  1
  O  O373  1  0.911650  0.911609  0.700341  1
  O  O374  1  0.921115  0.921079  0.102943  1
  O  O375  1  0.921115  0.921074  0.897176  1
  O  O376  1  0.581437  0.952153  0.669075  1
  O  O377  1  0.547856  0.918587  0.831018  1
  O  O378  1  0.581432  0.952156  0.331030  1
  O  O379  1  0.547855  0.918580  0.169085  1
  Si  Si380  1  0.590512  0.909505  0.750054  1
  O  O381  1  0.568644  0.999986  0.500046  1
  O  O382  1  0.500029  0.999987  0.368545  1
  Si  Si383  1  0.942522  0.942484  0.619202  1
  Si  Si384  1  0.557785  0.819130  0.619209  1
  Si  Si385  1  0.942213  0.680814  0.119151  1
  Si  Si386  1  0.680884  0.942216  0.880903  1
  Si  Si387  1  0.942267  0.680857  0.880869  1
  Si  Si388  1  0.557815  0.819150  0.380911  1
  Si  Si389  1  0.680877  0.942208  0.119194  1
  Si  Si390  1  0.557522  0.704566  0.619809  1
  Si  Si391  1  0.942522  0.795381  0.119822  1
  Si  Si392  1  0.795443  0.942484  0.880282  1
  Si  Si393  1  0.942516  0.795410  0.880296  1
  Si  Si394  1  0.557533  0.704585  0.380294  1
  Si  Si395  1  0.795441  0.942481  0.119820  1
  Si  Si396  1  0.500023  0.941681  0.881262  1
  Si  Si397  1  0.558339  0.999992  0.381264  1
  O  O398  1  0.500012  0.695543  0.640968  1
  O  O399  1  0.500027  0.999984  0.631554  1
  O  O400  1  0.673116  0.999987  0.131489  1
  O  O401  1  0.500026  0.695550  0.359136  1
  O  O402  1  0.500031  0.931380  0.000048  1
  Si  Si403  1  0.558336  0.999980  0.618825  1
  O  O404  1  0.933805  0.999987  0.363392  1
  O  O405  1  0.500028  0.999988  0.868546  1
  O  O406  1  0.933796  0.999990  0.636725  1
  O  O407  1  0.500035  0.999989  0.131546  1
  O  O408  1  0.804477  0.999989  0.140964  1
