# generated using pymatgen
data_SiO2
_symmetry_space_group_name_H-M   'P 1'
_cell_length_a   12.85129686
_cell_length_b   12.61611532
_cell_length_c   21.07206618
_cell_angle_alpha   90.00000000
_cell_angle_beta   96.29000000
_cell_angle_gamma   90.00000000
_symmetry_Int_Tables_number   1
_chemical_formula_structural   SiO2
_chemical_formula_sum   'Si56 O112'
_cell_volume   3395.91971323
_cell_formula_units_Z   56
loop_
 _symmetry_equiv_pos_site_id
 _symmetry_equiv_pos_as_xyz
  1  'x, y, z'
loop_
 _atom_site_type_symbol
 _atom_site_label
 _atom_site_symmetry_multiplicity
 _atom_site_fract_x
 _atom_site_fract_y
 _atom_site_fract_z
 _atom_site_occupancy
  Si  Si1  1  0.644095  0.121573  0.231300  1
  Si  Si2  1  0.980421  0.121821  0.286781  1
  Si  Si3  1  0.839085  0.121919  0.158485  1
  Si  Si4  1  0.122900  0.376793  0.066538  1
  Si  Si5  1  0.268651  0.377151  0.192782  1
  Si  Si6  1  0.135272  0.309535  0.299758  1
  Si  Si7  1  0.495050  0.310993  0.238158  1
  Si  Si8  1  0.894499  0.309158  0.074331  1
  Si  Si9  1  0.644792  0.499893  0.230161  1
  O  O10  1  0.016424  0.328071  0.083283  1
  O  O11  1  0.106734  0.499892  0.059367  1
  O  O12  1  0.210379  0.359288  0.123878  1
  O  O13  1  0.924286  0.499893  0.213751  1
  O  O14  1  0.383859  0.332688  0.201354  1
  O  O15  1  0.204515  0.325214  0.243828  1
  O  O16  1  0.076010  0.200284  0.297014  1
  O  O17  1  0.050784  0.398283  0.291725  1
  O  O18  1  0.484246  0.326729  0.311030  1
  O  O19  1  0.706639  0.499893  0.298415  1
  O  O20  1  0.899465  0.499893  0.331774  1
  O  O21  1  0.848740  0.398375  0.114619  1
  O  O22  1  0.728911  0.499893  0.182119  1
  O  O23  1  0.573712  0.399410  0.222268  1
  O  O24  1  0.548953  0.201727  0.225110  1
  O  O25  1  0.272496  0.499893  0.205444  1
  O  O26  1  0.729007  0.142688  0.183589  1
  O  O27  1  0.704187  0.137687  0.299629  1
  O  O28  1  0.921899  0.140965  0.218164  1
  O  O29  1  0.863263  0.199457  0.102979  1
  Si  Si30  1  0.837555  0.499893  0.155420  1
  Si  Si31  1  0.982709  0.499893  0.282892  1
  O  O32  1  0.858382  0.329837  0.001077  1
  Si  Si33  1  0.785935  0.121593  0.359870  1
  Si  Si34  1  0.214179  0.121592  0.640234  1
  Si  Si35  1  0.273791  0.377106  0.422427  1
  Si  Si36  1  0.726323  0.377105  0.577677  1
  Si  Si37  1  0.495358  0.376681  0.379508  1
  Si  Si38  1  0.504756  0.376680  0.620596  1
  Si  Si39  1  0.717959  0.312501  0.436428  1
  Si  Si40  1  0.282154  0.312500  0.563676  1
  O  O41  1  0.202862  0.327115  0.365206  1
  O  O42  1  0.797251  0.327113  0.634898  1
  O  O43  1  0.256458  0.332021  0.489972  1
  O  O44  1  0.743656  0.332021  0.510132  1
  O  O45  1  0.256271  0.499893  0.421778  1
  O  O46  1  0.391525  0.360024  0.411125  1
  O  O47  1  0.608589  0.360023  0.588979  1
  O  O48  1  0.743843  0.499892  0.578326  1
  O  O49  1  0.493051  0.499892  0.626697  1
  O  O50  1  0.597129  0.331117  0.418189  1
  O  O51  1  0.402984  0.331115  0.581916  1
  O  O52  1  0.756110  0.202340  0.412130  1
  O  O53  1  0.244004  0.202339  0.587974  1
  O  O54  1  0.773547  0.399152  0.398908  1
  O  O55  1  0.226567  0.399151  0.601196  1
  O  O56  1  0.895693  0.142690  0.334599  1
  O  O57  1  0.104421  0.142689  0.665506  1
  Si  Si58  1  0.790317  0.499893  0.358203  1
  Si  Si59  1  0.209797  0.499891  0.641901  1
  O  O60  1  0.507063  0.499893  0.373407  1
  Si  Si61  1  0.356019  0.121572  0.768804  1
  Si  Si62  1  0.019693  0.121820  0.713323  1
  Si  Si63  1  0.161029  0.121918  0.841619  1
  Si  Si64  1  0.877213  0.376793  0.933566  1
  Si  Si65  1  0.731463  0.377149  0.807322  1
  Si  Si66  1  0.864842  0.309533  0.700346  1
  Si  Si67  1  0.505064  0.310991  0.761946  1
  Si  Si68  1  0.105615  0.309156  0.925774  1
  Si  Si69  1  0.162559  0.499891  0.844684  1
  O  O70  1  0.983689  0.328070  0.916822  1
  O  O71  1  0.075828  0.499891  0.786354  1
  O  O72  1  0.789735  0.359286  0.876226  1
  O  O73  1  0.616255  0.332686  0.798750  1
  O  O74  1  0.795599  0.325212  0.756277  1
  O  O75  1  0.924104  0.200283  0.703090  1
  O  O76  1  0.949329  0.398281  0.708379  1
  O  O77  1  0.515868  0.326727  0.689074  1
  O  O78  1  0.151374  0.398374  0.885485  1
  O  O79  1  0.271202  0.499891  0.817985  1
  O  O80  1  0.426402  0.399408  0.777836  1
  O  O81  1  0.451160  0.201726  0.774994  1
  O  O82  1  0.271107  0.142687  0.816515  1
  O  O83  1  0.295927  0.137686  0.700475  1
  O  O84  1  0.078215  0.140964  0.781940  1
  O  O85  1  0.136850  0.199456  0.897126  1
  Si  Si86  1  0.355322  0.499891  0.769943  1
  Si  Si87  1  0.017404  0.499891  0.717212  1
  O  O88  1  0.100649  0.499891  0.668330  1
  O  O89  1  0.727618  0.499891  0.794660  1
  O  O90  1  0.293475  0.499891  0.701689  1
  O  O91  1  0.893380  0.499892  0.940737  1
  O  O92  1  0.141731  0.329837  0.999027  1
  Si  Si93  1  0.644095  0.878212  0.231300  1
  Si  Si94  1  0.980421  0.877965  0.286781  1
  Si  Si95  1  0.839085  0.877866  0.158485  1
  Si  Si96  1  0.122900  0.622992  0.066538  1
  Si  Si97  1  0.268650  0.622635  0.192782  1
  Si  Si98  1  0.135272  0.690250  0.299758  1
  Si  Si99  1  0.495050  0.688794  0.238159  1
  Si  Si100  1  0.894499  0.690628  0.074330  1
  O  O101  1  0.008195  0.999893  0.291365  1
  O  O102  1  0.614933  0.999893  0.226027  1
  O  O103  1  0.016425  0.671714  0.083282  1
  O  O104  1  0.210379  0.640498  0.123878  1
  O  O105  1  0.383859  0.667099  0.201354  1
  O  O106  1  0.204515  0.674572  0.243828  1
  O  O107  1  0.076010  0.799501  0.297014  1
  O  O108  1  0.050784  0.601503  0.291725  1
  O  O109  1  0.484245  0.673057  0.311030  1
  O  O110  1  0.863263  0.800328  0.102979  1
  O  O111  1  0.848740  0.601410  0.114619  1
  O  O112  1  0.573712  0.600376  0.222268  1
  O  O113  1  0.548953  0.798059  0.225110  1
  O  O114  1  0.729007  0.857097  0.183589  1
  O  O115  1  0.704187  0.862099  0.299629  1
  O  O116  1  0.921899  0.858820  0.218164  1
  O  O117  1  0.843919  0.999892  0.142149  1
  O  O118  1  0.858382  0.669947  0.001077  1
  Si  Si119  1  0.214179  0.878191  0.640234  1
  Si  Si120  1  0.785934  0.878193  0.359870  1
  Si  Si121  1  0.726323  0.622678  0.577677  1
  Si  Si122  1  0.273791  0.622679  0.422427  1
  Si  Si123  1  0.504756  0.623103  0.620596  1
  Si  Si124  1  0.495358  0.623105  0.379508  1
  Si  Si125  1  0.282154  0.687283  0.563677  1
  Si  Si126  1  0.717959  0.687284  0.436428  1
  O  O127  1  0.895693  0.857095  0.334599  1
  O  O128  1  0.104421  0.857094  0.665506  1
  O  O129  1  0.797251  0.672670  0.634898  1
  O  O130  1  0.202862  0.672671  0.365206  1
  O  O131  1  0.743656  0.667763  0.510132  1
  O  O132  1  0.256458  0.667763  0.489972  1
  O  O133  1  0.217739  0.999892  0.622547  1
  O  O134  1  0.608589  0.639760  0.588979  1
  O  O135  1  0.391524  0.639761  0.411125  1
  O  O136  1  0.402984  0.668668  0.581916  1
  O  O137  1  0.597129  0.668669  0.418189  1
  O  O138  1  0.244004  0.797444  0.587975  1
  O  O139  1  0.756109  0.797445  0.412130  1
  O  O140  1  0.226567  0.600632  0.601197  1
  O  O141  1  0.773547  0.600634  0.398908  1
  O  O142  1  0.782374  0.999893  0.377557  1
  Si  Si143  1  0.356019  0.878211  0.768804  1
  Si  Si144  1  0.019693  0.877963  0.713323  1
  Si  Si145  1  0.161029  0.877866  0.841619  1
  Si  Si146  1  0.877213  0.622991  0.933566  1
  Si  Si147  1  0.731463  0.622633  0.807322  1
  Si  Si148  1  0.864842  0.690249  0.700346  1
  Si  Si149  1  0.505063  0.688792  0.761946  1
  Si  Si150  1  0.105615  0.690627  0.925774  1
  O  O151  1  0.991918  0.999891  0.708739  1
  O  O152  1  0.271107  0.857096  0.816515  1
  O  O153  1  0.983689  0.671713  0.916821  1
  O  O154  1  0.789735  0.640497  0.876226  1
  O  O155  1  0.136850  0.800327  0.897125  1
  O  O156  1  0.616254  0.667097  0.798750  1
  O  O157  1  0.795599  0.674571  0.756276  1
  O  O158  1  0.924104  0.799500  0.703090  1
  O  O159  1  0.949329  0.601502  0.708379  1
  O  O160  1  0.515868  0.673055  0.689074  1
  O  O161  1  0.156195  0.999892  0.857956  1
  O  O162  1  0.078215  0.858819  0.781940  1
  O  O163  1  0.295927  0.862098  0.700475  1
  O  O164  1  0.151374  0.601409  0.885485  1
  O  O165  1  0.426401  0.600375  0.777836  1
  O  O166  1  0.451161  0.798057  0.774994  1
  O  O167  1  0.385181  0.999892  0.774078  1
  O  O168  1  0.141732  0.669947  0.999027  1
