# generated using pymatgen
data_SiO2
_symmetry_space_group_name_H-M   'P 1'
_cell_length_a   20.61705954
_cell_length_b   9.77350595
_cell_length_c   19.46933341
_cell_angle_alpha   90.00000000
_cell_angle_beta   90.00000000
_cell_angle_gamma   90.00000000
_symmetry_Int_Tables_number   1
_chemical_formula_structural   SiO2
_chemical_formula_sum   'Si64 O128'
_cell_volume   3923.08925783
_cell_formula_units_Z   64
loop_
 _symmetry_equiv_pos_site_id
 _symmetry_equiv_pos_as_xyz
  1  'x, y, z'
loop_
 _atom_site_type_symbol
 _atom_site_label
 _atom_site_symmetry_multiplicity
 _atom_site_fract_x
 _atom_site_fract_y
 _atom_site_fract_z
 _atom_site_occupancy
  O  O1  1  0.271589  0.841118  0.152103  1
  O  O2  1  0.771566  0.341170  0.152053  1
  O  O3  1  0.728446  0.841171  0.152038  1
  O  O4  1  0.228447  0.341115  0.152107  1
  O  O5  1  0.271602  0.158494  0.652094  1
  O  O6  1  0.771602  0.658528  0.652058  1
  O  O7  1  0.728473  0.158547  0.652048  1
  O  O8  1  0.228471  0.658499  0.652107  1
  O  O9  1  0.728448  0.158602  0.847948  1
  O  O10  1  0.228440  0.658546  0.848000  1
  O  O11  1  0.271567  0.158543  0.847998  1
  O  O12  1  0.771600  0.658625  0.847950  1
  O  O13  1  0.728466  0.841123  0.347946  1
  O  O14  1  0.228470  0.341077  0.348003  1
  O  O15  1  0.271604  0.841076  0.348004  1
  O  O16  1  0.771602  0.341104  0.347964  1
  O  O17  1  0.336340  0.949605  0.250045  1
  O  O18  1  0.836322  0.449653  0.250009  1
  O  O19  1  0.663711  0.949641  0.250001  1
  O  O20  1  0.163719  0.449618  0.250055  1
  O  O21  1  0.336329  0.050036  0.750051  1
  O  O22  1  0.836343  0.550052  0.750011  1
  O  O23  1  0.663717  0.050070  0.750000  1
  O  O24  1  0.163713  0.550014  0.750048  1
  O  O25  1  0.289845  0.100474  0.154032  1
  O  O26  1  0.789835  0.600545  0.153988  1
  O  O27  1  0.710175  0.100541  0.153981  1
  O  O28  1  0.210191  0.600482  0.154031  1
  O  O29  1  0.289872  0.899137  0.654034  1
  O  O30  1  0.789870  0.399166  0.653985  1
  O  O31  1  0.710217  0.899175  0.653989  1
  O  O32  1  0.210208  0.399138  0.654035  1
  O  O33  1  0.710195  0.899247  0.846025  1
  O  O34  1  0.210177  0.399175  0.846083  1
  O  O35  1  0.289830  0.899187  0.846070  1
  O  O36  1  0.789844  0.399241  0.846033  1
  O  O37  1  0.710202  0.100477  0.346023  1
  O  O38  1  0.210210  0.600455  0.346080  1
  O  O39  1  0.289861  0.100450  0.346073  1
  O  O40  1  0.789861  0.600484  0.346035  1
  O  O41  1  0.382480  0.939531  0.124237  1
  O  O42  1  0.882459  0.439576  0.124216  1
  O  O43  1  0.617555  0.939569  0.124198  1
  O  O44  1  0.117553  0.439539  0.124256  1
  O  O45  1  0.382502  0.060100  0.624250  1
  O  O46  1  0.882494  0.560132  0.624210  1
  O  O47  1  0.617588  0.060119  0.624195  1
  O  O48  1  0.117579  0.560088  0.624243  1
  O  O49  1  0.617552  0.060187  0.875801  1
  O  O50  1  0.117555  0.560146  0.875850  1
  O  O51  1  0.382459  0.060147  0.875850  1
  O  O52  1  0.882479  0.560178  0.875820  1
  O  O53  1  0.617571  0.939515  0.375804  1
  O  O54  1  0.117583  0.439490  0.375852  1
  O  O55  1  0.382490  0.939494  0.375849  1
  O  O56  1  0.882495  0.439525  0.375808  1
  O  O57  1  0.087217  0.499832  0.000051  1
  O  O58  1  0.587214  0.999887  0.000003  1
  O  O59  1  0.912809  0.499890  0.000027  1
  O  O60  1  0.412811  0.999838  0.000036  1
  O  O61  1  0.087238  0.499797  0.500042  1
  O  O62  1  0.587239  0.999836  0.500001  1
  O  O63  1  0.912834  0.499811  0.500014  1
  O  O64  1  0.412834  0.999797  0.500045  1
  O  O65  1  0.000007  0.395103  0.076099  1
  O  O66  1  0.500018  0.895069  0.076067  1
  O  O67  1  0.000036  0.604571  0.576084  1
  O  O68  1  0.500042  0.104584  0.576079  1
  O  O69  1  0.000018  0.604619  0.923982  1
  O  O70  1  0.500006  0.104642  0.923965  1
  O  O71  1  0.000037  0.395039  0.423969  1
  O  O72  1  0.500032  0.895034  0.423972  1
  O  O73  1  0.100149  0.255686  0.033502  1
  O  O74  1  0.600167  0.755732  0.033425  1
  O  O75  1  0.899866  0.255738  0.033453  1
  O  O76  1  0.399865  0.755682  0.033475  1
  O  O77  1  0.100187  0.743946  0.533489  1
  O  O78  1  0.600184  0.243985  0.533445  1
  O  O79  1  0.899900  0.743966  0.533441  1
  O  O80  1  0.399888  0.243947  0.533487  1
  O  O81  1  0.899877  0.744041  0.966576  1
  O  O82  1  0.399859  0.243992  0.966612  1
  O  O83  1  0.100155  0.743985  0.966622  1
  O  O84  1  0.600156  0.244037  0.966559  1
  O  O85  1  0.899890  0.255666  0.466565  1
  O  O86  1  0.399894  0.755645  0.466614  1
  O  O87  1  0.100175  0.255640  0.466612  1
  O  O88  1  0.600185  0.755677  0.466574  1
  O  O89  1  0.316372  0.287238  0.062874  1
  O  O90  1  0.816383  0.787300  0.062823  1
  O  O91  1  0.683641  0.287302  0.062819  1
  O  O92  1  0.183647  0.787249  0.062877  1
  O  O93  1  0.316405  0.712381  0.562875  1
  O  O94  1  0.816404  0.212406  0.562821  1
  O  O95  1  0.683676  0.712419  0.562826  1
  O  O96  1  0.183667  0.212394  0.562870  1
  O  O97  1  0.683663  0.712477  0.937174  1
  O  O98  1  0.183634  0.212408  0.937241  1
  O  O99  1  0.316369  0.712426  0.937228  1
  O  O100  1  0.816381  0.212473  0.937188  1
  O  O101  1  0.683673  0.287228  0.437187  1
  O  O102  1  0.183676  0.787221  0.437238  1
  O  O103  1  0.316398  0.287208  0.437233  1
  O  O104  1  0.816405  0.787251  0.437184  1
  O  O105  1  0.211317  0.163226  0.060107  1
  O  O106  1  0.711333  0.663299  0.060046  1
  O  O107  1  0.788695  0.163308  0.060060  1
  O  O108  1  0.288698  0.663238  0.060093  1
  O  O109  1  0.211352  0.836397  0.560105  1
  O  O110  1  0.711355  0.336415  0.560055  1
  O  O111  1  0.788734  0.836417  0.560054  1
  O  O112  1  0.288722  0.336399  0.560098  1
  O  O113  1  0.788714  0.836484  0.939948  1
  O  O114  1  0.288687  0.336415  0.940012  1
  O  O115  1  0.211315  0.836439  0.940007  1
  O  O116  1  0.711327  0.336476  0.939957  1
  O  O117  1  0.788724  0.163219  0.439949  1
  O  O118  1  0.288726  0.663220  0.440003  1
  O  O119  1  0.211344  0.163215  0.439998  1
  O  O120  1  0.711352  0.663250  0.439961  1
  O  O121  1  0.135362  0.999831  0.000065  1
  O  O122  1  0.635378  0.499891  0.999988  1
  O  O123  1  0.864658  0.999896  0.000013  1
  O  O124  1  0.364641  0.499831  0.000046  1
  O  O125  1  0.135397  0.999799  0.500059  1
  O  O126  1  0.635405  0.499829  0.500002  1
  O  O127  1  0.864684  0.999818  0.500007  1
  O  O128  1  0.364676  0.499796  0.500051  1
  Si  Si129  1  0.320992  0.957683  0.170972  1
  Si  Si130  1  0.820966  0.457743  0.170939  1
  Si  Si131  1  0.679045  0.957738  0.170926  1
  Si  Si132  1  0.179050  0.457690  0.170979  1
  Si  Si133  1  0.321006  0.041940  0.670974  1
  Si  Si134  1  0.821003  0.541966  0.670936  1
  Si  Si135  1  0.679075  0.041970  0.670929  1
  Si  Si136  1  0.179067  0.541935  0.670977  1
  Si  Si137  1  0.679048  0.042032  0.829077  1
  Si  Si138  1  0.179046  0.541971  0.829125  1
  Si  Si139  1  0.320969  0.041981  0.829122  1
  Si  Si140  1  0.820992  0.542024  0.829084  1
  Si  Si141  1  0.679062  0.957685  0.329075  1
  Si  Si142  1  0.179073  0.457663  0.329127  1
  Si  Si143  1  0.321000  0.957659  0.329121  1
  Si  Si144  1  0.820998  0.457690  0.329087  1
  Si  Si145  1  0.074801  0.397802  0.060769  1
  Si  Si146  1  0.574807  0.897825  0.060708  1
  Si  Si147  1  0.925219  0.397837  0.060736  1
  Si  Si148  1  0.425224  0.897787  0.060744  1
  Si  Si149  1  0.074830  0.601839  0.560755  1
  Si  Si150  1  0.574830  0.101875  0.560716  1
  Si  Si151  1  0.925248  0.601861  0.560724  1
  Si  Si152  1  0.425247  0.101843  0.560756  1
  Si  Si153  1  0.925225  0.601923  0.939311  1
  Si  Si154  1  0.425218  0.101897  0.939329  1
  Si  Si155  1  0.074806  0.601882  0.939340  1
  Si  Si156  1  0.574801  0.101928  0.939290  1
  Si  Si157  1  0.925244  0.397776  0.439297  1
  Si  Si158  1  0.425244  0.897750  0.439333  1
  Si  Si159  1  0.074825  0.397746  0.439332  1
  Si  Si160  1  0.574826  0.897775  0.439297  1
  Si  Si161  1  0.262759  0.223580  0.110853  1
  Si  Si162  1  0.762763  0.723647  0.110795  1
  Si  Si163  1  0.737255  0.223650  0.110799  1
  Si  Si164  1  0.237267  0.723594  0.110849  1
  Si  Si165  1  0.262789  0.776030  0.610853  1
  Si  Si166  1  0.762790  0.276064  0.610799  1
  Si  Si167  1  0.737294  0.776068  0.610803  1
  Si  Si168  1  0.237286  0.276035  0.610847  1
  Si  Si169  1  0.737280  0.776139  0.889201  1
  Si  Si170  1  0.237250  0.276060  0.889262  1
  Si  Si171  1  0.262752  0.776083  0.889255  1
  Si  Si172  1  0.762765  0.276124  0.889209  1
  Si  Si173  1  0.737287  0.223576  0.389208  1
  Si  Si174  1  0.237290  0.723564  0.389260  1
  Si  Si175  1  0.262782  0.223557  0.389256  1
  Si  Si176  1  0.762786  0.723606  0.389209  1
  Si  Si177  1  0.154450  0.155883  0.006663  1
  Si  Si178  1  0.654472  0.655939  0.006588  1
  Si  Si179  1  0.845563  0.155945  0.006609  1
  Si  Si180  1  0.345558  0.655884  0.006643  1
  Si  Si181  1  0.154490  0.843750  0.506657  1
  Si  Si182  1  0.654489  0.343776  0.506603  1
  Si  Si183  1  0.845596  0.843766  0.506605  1
  Si  Si184  1  0.345585  0.343746  0.506650  1
  Si  Si185  1  0.845573  0.843844  0.993409  1
  Si  Si186  1  0.345553  0.343778  0.993454  1
  Si  Si187  1  0.154457  0.843784  0.993461  1
  Si  Si188  1  0.654459  0.343834  0.993398  1
  Si  Si189  1  0.845589  0.155865  0.493403  1
  Si  Si190  1  0.345590  0.655850  0.493456  1
  Si  Si191  1  0.154481  0.155851  0.493454  1
  Si  Si192  1  0.654490  0.655882  0.493409  1
