# generated using pymatgen
data_SiO2
_symmetry_space_group_name_H-M   'P 1'
_cell_length_a   21.61411857
_cell_length_b   18.05221767
_cell_length_c   12.27583869
_cell_angle_alpha   90.00000000
_cell_angle_beta   124.73980000
_cell_angle_gamma   90.00000000
_symmetry_Int_Tables_number   1
_chemical_formula_structural   SiO2
_chemical_formula_sum   'Si64 O128'
_cell_volume   3936.02755157
_cell_formula_units_Z   64
loop_
 _symmetry_equiv_pos_site_id
 _symmetry_equiv_pos_as_xyz
  1  'x, y, z'
loop_
 _atom_site_type_symbol
 _atom_site_label
 _atom_site_symmetry_multiplicity
 _atom_site_fract_x
 _atom_site_fract_y
 _atom_site_fract_z
 _atom_site_occupancy
  Si  Si1  1  0.175217  0.160015  0.468758  1
  Si  Si2  1  0.451030  0.247748  0.553357  1
  Si  Si3  1  0.049020  0.252076  0.446720  1
  Si  Si4  1  0.294377  0.252037  0.712210  1
  Si  Si5  1  0.205671  0.247781  0.287893  1
  Si  Si6  1  0.434287  0.149156  0.212524  1
  Si  Si7  1  0.415338  0.153249  0.944845  1
  Si  Si8  1  0.332004  0.155334  0.311230  1
  O  O9  1  0.000020  0.228953  0.500029  1
  O  O10  1  0.400144  0.310540  0.553450  1
  O  O11  1  0.099908  0.189278  0.446644  1
  O  O12  1  0.496571  0.207169  0.308949  1
  O  O13  1  0.003476  0.292651  0.691129  1
  O  O14  1  0.393912  0.188285  0.451323  1
  O  O15  1  0.106136  0.311537  0.548760  1
  O  O16  1  0.409358  0.159765  0.065908  1
  O  O17  1  0.471585  0.070929  0.261999  1
  O  O18  1  0.367058  0.157495  0.228419  1
  O  O19  1  0.392675  0.072723  0.887894  1
  O  O20  1  0.362637  0.210835  0.834462  1
  O  O21  1  0.137410  0.288981  0.165649  1
  O  O22  1  0.321472  0.072517  0.336721  1
  O  O23  1  0.258937  0.203251  0.261149  1
  O  O24  1  0.241116  0.296559  0.738940  1
  O  O25  1  0.320009  0.306423  0.644849  1
  O  O26  1  0.180049  0.193392  0.355263  1
  O  O27  1  0.186466  0.073397  0.482023  1
  O  O28  1  0.243193  0.193646  0.602257  1
  O  O29  1  0.256866  0.306186  0.397874  1
  Si  Si30  1  0.324837  0.339795  0.531346  1
  Si  Si31  1  0.324859  0.660008  0.531339  1
  Si  Si32  1  0.065767  0.350652  0.787576  1
  Si  Si33  1  0.065801  0.649165  0.787608  1
  Si  Si34  1  0.084718  0.346566  0.055254  1
  Si  Si35  1  0.084751  0.653260  0.055285  1
  Si  Si36  1  0.168042  0.344490  0.688855  1
  Si  Si37  1  0.168079  0.655329  0.688890  1
  Si  Si38  1  0.166786  0.499909  0.583696  1
  Si  Si39  1  0.120245  0.499909  0.191722  1
  Si  Si40  1  0.265884  0.499905  0.475387  1
  Si  Si41  1  0.021188  0.499916  0.300135  1
  O  O42  1  0.090696  0.340030  0.934191  1
  O  O43  1  0.090738  0.659777  0.934229  1
  O  O44  1  0.028482  0.428884  0.738135  1
  O  O45  1  0.028501  0.570938  0.738142  1
  O  O46  1  0.132992  0.342321  0.771670  1
  O  O47  1  0.133028  0.657498  0.771706  1
  O  O48  1  0.107404  0.427092  0.112204  1
  O  O49  1  0.107432  0.572740  0.112258  1
  O  O50  1  0.178586  0.427302  0.663367  1
  O  O51  1  0.178599  0.572512  0.663386  1
  O  O52  1  0.313605  0.426423  0.518100  1
  O  O53  1  0.313611  0.573384  0.518070  1
  O  O54  1  0.085096  0.499912  0.452400  1
  O  O55  1  0.062320  0.499906  0.229206  1
  O  O56  1  0.223414  0.499915  0.543780  1
  O  O57  1  0.201659  0.499895  0.322857  1
  O  O58  1  0.000057  0.665251  0.000063  1
  O  O59  1  0.000028  0.334574  0.000059  1
  Si  Si60  1  0.175263  0.839804  0.468813  1
  Si  Si61  1  0.451059  0.752058  0.553373  1
  Si  Si62  1  0.049061  0.747758  0.446775  1
  Si  Si63  1  0.294421  0.747763  0.712233  1
  Si  Si64  1  0.205703  0.752049  0.287919  1
  Si  Si65  1  0.434308  0.850646  0.212528  1
  Si  Si66  1  0.415364  0.846558  0.944855  1
  Si  Si67  1  0.332041  0.844490  0.311262  1
  Si  Si68  1  0.379847  0.999904  0.808394  1
  Si  Si69  1  0.234200  0.999918  0.524742  1
  Si  Si70  1  0.478893  0.999903  0.699961  1
  O  O71  1  0.400164  0.689264  0.553439  1
  O  O72  1  0.099954  0.810550  0.446703  1
  O  O73  1  0.496598  0.792640  0.308964  1
  O  O74  1  0.003516  0.707177  0.691179  1
  O  O75  1  0.393948  0.811531  0.451351  1
  O  O76  1  0.106173  0.688288  0.548801  1
  O  O77  1  0.409380  0.840032  0.065912  1
  O  O78  1  0.471598  0.928876  0.261988  1
  O  O79  1  0.367085  0.842316  0.228437  1
  O  O80  1  0.392670  0.927077  0.887876  1
  O  O81  1  0.362684  0.788958  0.834483  1
  O  O82  1  0.137433  0.710858  0.165661  1
  O  O83  1  0.321495  0.927303  0.336745  1
  O  O84  1  0.258965  0.796563  0.261183  1
  O  O85  1  0.241151  0.703236  0.738974  1
  O  O86  1  0.320036  0.693378  0.644847  1
  O  O87  1  0.180087  0.806439  0.355300  1
  O  O88  1  0.186489  0.926429  0.482069  1
  O  O89  1  0.243232  0.806181  0.602274  1
  O  O90  1  0.256879  0.693645  0.397853  1
  O  O91  1  0.298433  0.999920  0.677264  1
  O  O92  1  0.414978  0.999914  0.547700  1
  O  O93  1  0.437771  0.999901  0.770907  1
  O  O94  1  0.276666  0.999917  0.456324  1
  O  O95  1  0.000065  0.770880  0.500092  1
  Si  Si96  1  0.333285  0.999912  0.416410  1
  Si  Si97  1  0.824822  0.160027  0.531305  1
  Si  Si98  1  0.549025  0.247752  0.446728  1
  Si  Si99  1  0.951023  0.252074  0.553343  1
  Si  Si100  1  0.705660  0.252055  0.287868  1
  Si  Si101  1  0.794380  0.247784  0.712194  1
  Si  Si102  1  0.565777  0.149158  0.787567  1
  Si  Si103  1  0.584717  0.153260  0.055237  1
  Si  Si104  1  0.668049  0.155327  0.688842  1
  O  O105  1  0.743198  0.306179  0.602246  1
  O  O106  1  0.500026  0.165254  0.000035  1
  O  O107  1  0.599913  0.310551  0.446654  1
  O  O108  1  0.900130  0.189280  0.553411  1
  O  O109  1  0.503486  0.207163  0.691133  1
  O  O110  1  0.996567  0.292663  0.308946  1
  O  O111  1  0.606141  0.188285  0.548754  1
  O  O112  1  0.893908  0.311541  0.451316  1
  O  O113  1  0.590704  0.159777  0.934181  1
  O  O114  1  0.528488  0.070928  0.738110  1
  O  O115  1  0.633002  0.157492  0.771661  1
  O  O116  1  0.607400  0.072738  0.112205  1
  O  O117  1  0.637403  0.210855  0.165615  1
  O  O118  1  0.862644  0.288983  0.834449  1
  O  O119  1  0.678593  0.072516  0.663351  1
  O  O120  1  0.741122  0.203260  0.738926  1
  O  O121  1  0.758931  0.296587  0.261137  1
  O  O122  1  0.680039  0.306439  0.355245  1
  O  O123  1  0.820003  0.193397  0.644820  1
  O  O124  1  0.813591  0.073401  0.518054  1
  O  O125  1  0.756851  0.193644  0.397839  1
  O  O126  1  0.500027  0.270871  0.500042  1
  Si  Si127  1  0.675255  0.660020  0.468774  1
  Si  Si128  1  0.675218  0.339810  0.468755  1
  Si  Si129  1  0.934318  0.649182  0.212540  1
  Si  Si130  1  0.934281  0.350673  0.212516  1
  Si  Si131  1  0.915364  0.653269  0.944859  1
  Si  Si132  1  0.915335  0.346570  0.944842  1
  Si  Si133  1  0.832048  0.655333  0.311270  1
  Si  Si134  1  0.832001  0.344500  0.311229  1
  Si  Si135  1  0.833300  0.499918  0.416436  1
  Si  Si136  1  0.879843  0.499921  0.808410  1
  Si  Si137  1  0.734202  0.499909  0.524747  1
  Si  Si138  1  0.978899  0.499917  0.699995  1
  O  O139  1  0.909386  0.659806  0.065923  1
  O  O140  1  0.909348  0.340052  0.065898  1
  O  O141  1  0.971610  0.570953  0.261991  1
  O  O142  1  0.971579  0.428900  0.261977  1
  O  O143  1  0.867095  0.657504  0.228451  1
  O  O144  1  0.867053  0.342340  0.228415  1
  O  O145  1  0.892671  0.572746  0.887902  1
  O  O146  1  0.892667  0.427096  0.887895  1
  O  O147  1  0.821504  0.572523  0.336763  1
  O  O148  1  0.821479  0.427314  0.336743  1
  O  O149  1  0.686486  0.573395  0.482046  1
  O  O150  1  0.686470  0.426435  0.482032  1
  O  O151  1  0.914990  0.499914  0.547731  1
  O  O152  1  0.937769  0.499925  0.770927  1
  O  O153  1  0.776674  0.499914  0.456358  1
  O  O154  1  0.798427  0.499913  0.677278  1
  Si  Si155  1  0.824858  0.839813  0.531329  1
  Si  Si156  1  0.549053  0.752063  0.446747  1
  Si  Si157  1  0.951064  0.747757  0.553398  1
  Si  Si158  1  0.705704  0.747777  0.287896  1
  Si  Si159  1  0.794413  0.752052  0.712209  1
  Si  Si160  1  0.565793  0.850654  0.787578  1
  Si  Si161  1  0.584747  0.846566  0.055260  1
  Si  Si162  1  0.668073  0.844489  0.688868  1
  Si  Si163  1  0.765878  0.999914  0.475354  1
  Si  Si164  1  0.521184  0.999907  0.300133  1
  O  O165  1  0.599949  0.689275  0.446673  1
  O  O166  1  0.900169  0.810553  0.553453  1
  O  O167  1  0.503515  0.792635  0.691159  1
  O  O168  1  0.996605  0.707186  0.308985  1
  O  O169  1  0.606168  0.811530  0.548778  1
  O  O170  1  0.893952  0.688290  0.451362  1
  O  O171  1  0.590728  0.840050  0.934198  1
  O  O172  1  0.528485  0.928875  0.738090  1
  O  O173  1  0.633022  0.842322  0.771682  1
  O  O174  1  0.607416  0.927090  0.112221  1
  O  O175  1  0.637439  0.788973  0.165638  1
  O  O176  1  0.862683  0.710860  0.834466  1
  O  O177  1  0.678603  0.927303  0.663373  1
  O  O178  1  0.741151  0.796564  0.738948  1
  O  O179  1  0.758970  0.703261  0.261175  1
  O  O180  1  0.680081  0.693388  0.355266  1
  O  O181  1  0.820028  0.806446  0.644833  1
  O  O182  1  0.813609  0.926437  0.518049  1
  O  O183  1  0.756881  0.806177  0.397837  1
  O  O184  1  0.743238  0.693652  0.602267  1
  O  O185  1  0.701647  0.999918  0.322829  1
  O  O186  1  0.500056  0.834570  0.000058  1
  O  O187  1  0.562307  0.999915  0.229188  1
  O  O188  1  0.585099  0.999902  0.452394  1
  O  O189  1  0.500057  0.728937  0.500060  1
  Si  Si190  1  0.666791  0.999906  0.583684  1
  Si  Si191  1  0.620231  0.999915  0.191699  1
  O  O192  1  0.723414  0.999899  0.543761  1
