# generated using pymatgen
data_SiO2
_symmetry_space_group_name_H-M   'P 1'
_cell_length_a   10.14028952
_cell_length_b   15.13076978
_cell_length_c   8.86523801
_cell_angle_alpha   90.00000000
_cell_angle_beta   105.64000000
_cell_angle_gamma   90.00000000
_symmetry_Int_Tables_number   1
_chemical_formula_structural   SiO2
_chemical_formula_sum   'Si24 O48'
_cell_volume   1309.83504603
_cell_formula_units_Z   24
loop_
 _symmetry_equiv_pos_site_id
 _symmetry_equiv_pos_as_xyz
  1  'x, y, z'
loop_
 _atom_site_type_symbol
 _atom_site_label
 _atom_site_symmetry_multiplicity
 _atom_site_fract_x
 _atom_site_fract_y
 _atom_site_fract_z
 _atom_site_occupancy
  O  O1  1  0.495403  0.226794  0.005541  1
  O  O2  1  0.004792  0.726796  0.994633  1
  O  O3  1  0.504790  0.773037  0.994629  1
  O  O4  1  0.995404  0.273038  0.005540  1
  O  O5  1  0.303742  0.167640  0.774520  1
  O  O6  1  0.804189  0.667496  0.773696  1
  O  O7  1  0.695985  0.167507  0.226512  1
  O  O8  1  0.196425  0.667650  0.225693  1
  O  O9  1  0.696426  0.832190  0.225681  1
  O  O10  1  0.195979  0.332331  0.226505  1
  O  O11  1  0.304183  0.832328  0.773693  1
  O  O12  1  0.803743  0.332186  0.774507  1
  O  O13  1  0.354056  0.332710  0.804357  1
  O  O14  1  0.853154  0.832578  0.804055  1
  O  O15  1  0.647001  0.332587  0.196133  1
  O  O16  1  0.146107  0.832719  0.195837  1
  O  O17  1  0.646107  0.667119  0.195842  1
  O  O18  1  0.147007  0.167251  0.196145  1
  O  O19  1  0.353160  0.667250  0.804067  1
  O  O20  1  0.854055  0.167116  0.804361  1
  O  O21  1  0.242691  0.252024  0.994132  1
  O  O22  1  0.757517  0.747797  0.006095  1
  O  O23  1  0.742688  0.247812  0.994129  1
  O  O24  1  0.257518  0.752031  0.006100  1
  O  O25  1  0.444159  0.384044  0.296509  1
  O  O26  1  0.943692  0.884325  0.296823  1
  O  O27  1  0.556467  0.384318  0.703372  1
  O  O28  1  0.055995  0.884037  0.703686  1
  O  O29  1  0.556005  0.615790  0.703694  1
  O  O30  1  0.056465  0.115508  0.703379  1
  O  O31  1  0.443694  0.615513  0.296831  1
  O  O32  1  0.944162  0.115794  0.296516  1
  O  O33  1  0.324558  0.381903  0.512509  1
  O  O34  1  0.823851  0.882097  0.512443  1
  O  O35  1  0.676305  0.382096  0.487746  1
  O  O36  1  0.175600  0.881901  0.487689  1
  O  O37  1  0.675603  0.617931  0.487694  1
  O  O38  1  0.176307  0.117735  0.487757  1
  O  O39  1  0.323855  0.617735  0.512455  1
  O  O40  1  0.824558  0.117930  0.512512  1
  O  O41  1  0.266248  0.499750  0.299111  1
  O  O42  1  0.766248  0.000087  0.299106  1
  O  O43  1  0.733910  0.500083  0.701089  1
  O  O44  1  0.233907  0.999744  0.701094  1
  O  O45  1  0.384045  0.499808  0.726554  1
  O  O46  1  0.884039  0.000018  0.726549  1
  O  O47  1  0.616117  0.500025  0.273651  1
  O  O48  1  0.116121  0.999813  0.273655  1
  Si  Si49  1  0.348976  0.244644  0.896407  1
  Si  Si50  1  0.854109  0.743562  0.896095  1
  Si  Si51  1  0.646079  0.243570  0.104106  1
  Si  Si52  1  0.151207  0.744653  0.103794  1
  Si  Si53  1  0.651208  0.755182  0.103791  1
  Si  Si54  1  0.146075  0.256264  0.104110  1
  Si  Si55  1  0.354106  0.756268  0.896094  1
  Si  Si56  1  0.848975  0.255184  0.896408  1
  Si  Si57  1  0.301268  0.398429  0.331242  1
  Si  Si58  1  0.800704  0.898709  0.331235  1
  Si  Si59  1  0.699453  0.398708  0.668954  1
  Si  Si60  1  0.198891  0.898420  0.668962  1
  Si  Si61  1  0.698892  0.601404  0.668961  1
  Si  Si62  1  0.199455  0.101123  0.668967  1
  Si  Si63  1  0.300708  0.601124  0.331249  1
  Si  Si64  1  0.801268  0.101413  0.331238  1
  Si  Si65  1  0.400151  0.398376  0.690887  1
  Si  Si66  1  0.899548  0.898539  0.690845  1
  Si  Si67  1  0.600603  0.398546  0.309352  1
  Si  Si68  1  0.100013  0.898379  0.309306  1
  Si  Si69  1  0.600010  0.601456  0.309314  1
  Si  Si70  1  0.100610  0.101294  0.309357  1
  Si  Si71  1  0.399557  0.601286  0.690848  1
  Si  Si72  1  0.900146  0.101453  0.690898  1
