# generated using pymatgen
data_SiO2
_symmetry_space_group_name_H-M   'P 1'
_cell_length_a   41.81657799
_cell_length_b   12.80769475
_cell_length_c   12.63554297
_cell_angle_alpha   90.00000000
_cell_angle_beta   90.00000000
_cell_angle_gamma   90.00000000
_symmetry_Int_Tables_number   1
_chemical_formula_structural   SiO2
_chemical_formula_sum   'Si112 O224'
_cell_volume   6767.2678694
_cell_formula_units_Z   112
loop_
 _symmetry_equiv_pos_site_id
 _symmetry_equiv_pos_as_xyz
  1  'x, y, z'
loop_
 _atom_site_type_symbol
 _atom_site_label
 _atom_site_symmetry_multiplicity
 _atom_site_fract_x
 _atom_site_fract_y
 _atom_site_fract_z
 _atom_site_occupancy
  O  O1  1  0.092510  0.299656  0.142415  1
  O  O2  1  0.092511  0.299656  0.857732  1
  O  O3  1  0.114016  0.421806  0.000075  1
  O  O4  1  0.150593  0.344427  0.137877  1
  O  O5  1  0.150594  0.344429  0.862272  1
  O  O6  1  0.113646  0.487376  0.201899  1
  O  O7  1  0.113648  0.487377  0.798253  1
  O  O8  1  0.071674  0.176889  0.000073  1
  O  O9  1  0.109722  0.111764  0.140589  1
  O  O10  1  0.109723  0.111765  0.859557  1
  O  O11  1  0.052128  0.151234  0.199471  1
  O  O12  1  0.052128  0.151234  0.800677  1
  O  O13  1  0.146420  0.037727  0.000074  1
  O  O14  1  0.149102  0.971460  0.200826  1
  O  O15  1  0.149105  0.971462  0.799322  1
  O  O16  1  0.091739  0.300452  0.500082  1
  O  O17  1  0.150162  0.342001  0.500075  1
  O  O18  1  0.112351  0.462179  0.399498  1
  O  O19  1  0.112353  0.462184  0.600656  1
  O  O20  1  0.107176  0.109683  0.500072  1
  O  O21  1  0.057757  0.169479  0.398424  1
  O  O22  1  0.057756  0.169471  0.601725  1
  Si  Si23  1  0.032940  0.885960  0.622985  1
  O  O24  1  0.146427  0.996694  0.398600  1
  O  O25  1  0.146425  0.996695  0.601550  1
  O  O26  1  0.121151  0.835699  0.325818  1
  O  O27  1  0.121151  0.835699  0.674336  1
  O  O28  1  0.156728  0.567650  0.326974  1
  O  O29  1  0.156731  0.567652  0.673182  1
  O  O30  1  0.101202  0.647664  0.332568  1
  O  O31  1  0.101203  0.647666  0.667587  1
  O  O32  1  0.041902  0.995717  0.329355  1
  O  O33  1  0.041901  0.995714  0.670800  1
  O  O34  1  0.001034  0.141695  0.329284  1
  O  O35  1  0.001033  0.141695  0.670865  1
  O  O36  1  0.102364  0.759246  0.500078  1
  O  O37  1  0.061281  0.806649  0.359952  1
  O  O38  1  0.061281  0.806648  0.640202  1
  O  O39  1  0.029190  0.900633  0.500077  1
  Si  Si40  1  0.116494  0.393204  0.121579  1
  Si  Si41  1  0.116495  0.393202  0.878571  1
  Si  Si42  1  0.079942  0.184673  0.121840  1
  Si  Si43  1  0.079943  0.184673  0.878306  1
  Si  Si44  1  0.144068  0.065114  0.121782  1
  Si  Si45  1  0.144069  0.065116  0.878364  1
  Si  Si46  1  0.116078  0.392598  0.500077  1
  Si  Si47  1  0.078142  0.187038  0.500076  1
  Si  Si48  1  0.141779  0.063245  0.500075  1
  Si  Si49  1  0.149761  0.912837  0.310239  1
  Si  Si50  1  0.149762  0.912839  0.689909  1
  Si  Si51  1  0.120199  0.543758  0.311007  1
  Si  Si52  1  0.120201  0.543760  0.689146  1
  Si  Si53  1  0.037603  0.116361  0.309253  1
  Si  Si54  1  0.037603  0.116359  0.690898  1
  Si  Si55  1  0.095904  0.760974  0.377569  1
  Si  Si56  1  0.095905  0.760975  0.622585  1
  Si  Si57  1  0.032940  0.885963  0.377166  1
  O  O58  1  0.331974  0.658608  0.142426  1
  O  O59  1  0.168051  0.158635  0.142452  1
  O  O60  1  0.168052  0.158637  0.857696  1
  O  O61  1  0.331976  0.658598  0.857669  1
  O  O62  1  0.310476  0.780496  0.000044  1
  O  O63  1  0.189551  0.280528  0.000075  1
  O  O64  1  0.293268  0.811998  0.202824  1
  O  O65  1  0.206756  0.312017  0.202856  1
  O  O66  1  0.206759  0.312021  0.797295  1
  O  O67  1  0.293270  0.811986  0.797262  1
  O  O68  1  0.299470  0.790987  0.399315  1
  O  O69  1  0.200558  0.291010  0.399352  1
  O  O70  1  0.200557  0.291014  0.600803  1
  O  O71  1  0.299468  0.790991  0.600767  1
  O  O72  1  0.318052  0.354219  0.329294  1
  O  O73  1  0.181975  0.854242  0.329303  1
  O  O74  1  0.181976  0.854247  0.670830  1
  O  O75  1  0.318053  0.354217  0.670813  1
  O  O76  1  0.244079  0.835261  0.329889  1
  O  O77  1  0.255948  0.335265  0.329899  1
  O  O78  1  0.255949  0.335258  0.670232  1
  O  O79  1  0.244080  0.835272  0.670222  1
  O  O80  1  0.289491  0.971612  0.331749  1
  O  O81  1  0.210536  0.471632  0.331777  1
  O  O82  1  0.210539  0.471635  0.668371  1
  O  O83  1  0.289496  0.971613  0.668352  1
  O  O84  1  0.288321  0.316497  0.500058  1
  O  O85  1  0.211705  0.816518  0.500063  1
  O  O86  1  0.292826  0.176462  0.361093  1
  O  O87  1  0.207198  0.676480  0.361109  1
  O  O88  1  0.207200  0.676485  0.639030  1
  O  O89  1  0.292829  0.176459  0.639014  1
  O  O90  1  0.312437  0.054055  0.500047  1
  O  O91  1  0.187592  0.554074  0.500075  1
  Si  Si92  1  0.319282  0.773266  0.121568  1
  Si  Si93  1  0.180744  0.273292  0.121598  1
  Si  Si94  1  0.180746  0.273294  0.878549  1
  Si  Si95  1  0.319284  0.773256  0.878520  1
  Si  Si96  1  0.319983  0.768435  0.500044  1
  Si  Si97  1  0.180044  0.268463  0.500078  1
  Si  Si98  1  0.280703  0.853468  0.312677  1
  Si  Si99  1  0.219324  0.353485  0.312707  1
  Si  Si100  1  0.219327  0.353487  0.687442  1
  Si  Si101  1  0.280705  0.853469  0.687416  1
  Si  Si102  1  0.288432  0.297313  0.377652  1
  Si  Si103  1  0.211594  0.797330  0.377656  1
  Si  Si104  1  0.211594  0.797334  0.622472  1
  Si  Si105  1  0.288432  0.297311  0.622466  1
  Si  Si106  1  0.308980  0.066740  0.377145  1
  Si  Si107  1  0.191047  0.566755  0.377173  1
  Si  Si108  1  0.191049  0.566757  0.622977  1
  Si  Si109  1  0.308983  0.066740  0.622950  1
  O  O110  1  0.166702  0.154380  0.500079  1
  O  O111  1  0.333323  0.654352  0.500051  1
  O  O112  1  0.407515  0.799626  0.142382  1
  O  O113  1  0.407517  0.799617  0.857700  1
  O  O114  1  0.386011  0.921772  0.000038  1
  O  O115  1  0.349432  0.844399  0.137843  1
  O  O116  1  0.349434  0.844390  0.862238  1
  O  O117  1  0.386378  0.987351  0.201859  1
  O  O118  1  0.386382  0.987338  0.798214  1
  O  O119  1  0.428352  0.676855  0.000045  1
  O  O120  1  0.390303  0.611736  0.140563  1
  O  O121  1  0.390305  0.611726  0.859532  1
  O  O122  1  0.447898  0.651206  0.199441  1
  O  O123  1  0.447900  0.651197  0.800644  1
  O  O124  1  0.353606  0.537693  0.000053  1
  O  O125  1  0.350922  0.471435  0.200805  1
  O  O126  1  0.350925  0.471422  0.799299  1
  O  O127  1  0.408288  0.800423  0.500030  1
  O  O128  1  0.349864  0.841972  0.500041  1
  O  O129  1  0.387673  0.962154  0.399455  1
  O  O130  1  0.387677  0.962152  0.600614  1
  O  O131  1  0.392851  0.609658  0.500046  1
  O  O132  1  0.442271  0.669442  0.398390  1
  O  O133  1  0.442270  0.669454  0.601694  1
  Si  Si134  1  0.467088  0.385935  0.622946  1
  O  O135  1  0.353601  0.496666  0.398577  1
  O  O136  1  0.353603  0.496667  0.601527  1
  O  O137  1  0.378877  0.335673  0.325788  1
  O  O138  1  0.378878  0.335663  0.674301  1
  O  O139  1  0.343297  0.067635  0.326937  1
  O  O140  1  0.343302  0.067633  0.673145  1
  O  O141  1  0.398825  0.147639  0.332528  1
  O  O142  1  0.398829  0.147633  0.667550  1
  O  O143  1  0.458126  0.495686  0.329314  1
  O  O144  1  0.458126  0.495690  0.670753  1
  O  O145  1  0.498993  0.641674  0.329245  1
  O  O146  1  0.498993  0.641674  0.670825  1
  O  O147  1  0.397666  0.259214  0.500041  1
  O  O148  1  0.438747  0.306620  0.359912  1
  O  O149  1  0.438748  0.306622  0.640163  1
  O  O150  1  0.470838  0.400604  0.500033  1
  Si  Si151  1  0.383531  0.893174  0.121542  1
  Si  Si152  1  0.383533  0.893165  0.878534  1
  Si  Si153  1  0.420082  0.684646  0.121808  1
  Si  Si154  1  0.420084  0.684636  0.878276  1
  Si  Si155  1  0.355957  0.565088  0.121758  1
  Si  Si156  1  0.355959  0.565078  0.878341  1
  Si  Si157  1  0.383948  0.892571  0.500034  1
  Si  Si158  1  0.421883  0.687014  0.500042  1
  Si  Si159  1  0.358247  0.563218  0.500053  1
  Si  Si160  1  0.350265  0.412810  0.310219  1
  Si  Si161  1  0.350267  0.412804  0.689882  1
  Si  Si162  1  0.379826  0.043734  0.310966  1
  Si  Si163  1  0.379831  0.043726  0.689109  1
  Si  Si164  1  0.462423  0.616333  0.309216  1
  Si  Si165  1  0.462423  0.616336  0.690863  1
  Si  Si166  1  0.404123  0.260943  0.377532  1
  Si  Si167  1  0.404124  0.260941  0.622550  1
  Si  Si168  1  0.467088  0.385930  0.377125  1
  O  O169  1  0.592513  0.200265  0.142373  1
  O  O170  1  0.592512  0.200271  0.857692  1
  O  O171  1  0.614018  0.078119  0.000029  1
  O  O172  1  0.650596  0.155496  0.137831  1
  O  O173  1  0.650594  0.155503  0.862226  1
  O  O174  1  0.613650  0.012544  0.201851  1
  O  O175  1  0.613647  0.012551  0.798207  1
  O  O176  1  0.571675  0.323034  0.000036  1
  O  O177  1  0.609724  0.388157  0.140553  1
  O  O178  1  0.609722  0.388165  0.859522  1
  O  O179  1  0.552129  0.348683  0.199433  1
  O  O180  1  0.552128  0.348689  0.800637  1
  O  O181  1  0.646420  0.462201  0.000039  1
  O  O182  1  0.649104  0.528461  0.200792  1
  O  O183  1  0.649101  0.528472  0.799287  1
  O  O184  1  0.591740  0.199471  0.500028  1
  O  O185  1  0.650164  0.157922  0.500032  1
  O  O186  1  0.612354  0.037740  0.399448  1
  O  O187  1  0.612352  0.037741  0.600608  1
  O  O188  1  0.607177  0.390237  0.500041  1
  O  O189  1  0.557758  0.330446  0.398382  1
  O  O190  1  0.557757  0.330440  0.601685  1
  Si  Si191  1  0.532940  0.613957  0.622943  1
  O  O192  1  0.646425  0.503230  0.398564  1
  O  O193  1  0.646427  0.503230  0.601514  1
  O  O194  1  0.621150  0.664225  0.325777  1
  O  O195  1  0.621150  0.664229  0.674288  1
  O  O196  1  0.656730  0.932262  0.326929  1
  O  O197  1  0.656728  0.932263  0.673135  1
  O  O198  1  0.601202  0.852256  0.332519  1
  O  O199  1  0.601200  0.852260  0.667541  1
  O  O200  1  0.541901  0.504201  0.329311  1
  O  O201  1  0.541902  0.504201  0.670751  1
  O  O202  1  0.501035  0.358212  0.329246  1
  O  O203  1  0.501035  0.358217  0.670824  1
  O  O204  1  0.602361  0.740680  0.500030  1
  O  O205  1  0.561280  0.693270  0.359905  1
  O  O206  1  0.561279  0.693271  0.640157  1
  O  O207  1  0.529190  0.599285  0.500031  1
  Si  Si208  1  0.616498  0.106720  0.121535  1
  Si  Si209  1  0.616496  0.106724  0.878525  1
  Si  Si210  1  0.579945  0.315246  0.121802  1
  Si  Si211  1  0.579943  0.315252  0.878269  1
  Si  Si212  1  0.644070  0.434808  0.121747  1
  Si  Si213  1  0.644068  0.434817  0.878329  1
  Si  Si214  1  0.616080  0.107323  0.500029  1
  Si  Si215  1  0.578145  0.312880  0.500035  1
  Si  Si216  1  0.641781  0.436677  0.500040  1
  Si  Si217  1  0.649762  0.587085  0.310206  1
  Si  Si218  1  0.649761  0.587092  0.689870  1
  Si  Si219  1  0.620202  0.956162  0.310961  1
  Si  Si220  1  0.620199  0.956164  0.689100  1
  Si  Si221  1  0.537605  0.383554  0.309211  1
  Si  Si222  1  0.537604  0.383556  0.690856  1
  Si  Si223  1  0.595904  0.738950  0.377523  1
  Si  Si224  1  0.595903  0.738952  0.622540  1
  Si  Si225  1  0.532940  0.613957  0.377123  1
  O  O226  1  0.831976  0.841295  0.142442  1
  O  O227  1  0.668053  0.341289  0.142412  1
  O  O228  1  0.668051  0.341298  0.857655  1
  O  O229  1  0.831975  0.841296  0.857686  1
  O  O230  1  0.810476  0.719403  0.000063  1
  O  O231  1  0.689552  0.219402  0.000029  1
  O  O232  1  0.793270  0.687911  0.202843  1
  O  O233  1  0.706760  0.187901  0.202808  1
  O  O234  1  0.706757  0.187915  0.797248  1
  O  O235  1  0.793269  0.687908  0.797281  1
  O  O236  1  0.799469  0.708916  0.399338  1
  O  O237  1  0.700557  0.208909  0.399298  1
  O  O238  1  0.700561  0.208909  0.600751  1
  O  O239  1  0.799470  0.708913  0.600789  1
  O  O240  1  0.818052  0.145688  0.329291  1
  O  O241  1  0.681975  0.645676  0.329280  1
  O  O242  1  0.681975  0.645683  0.670807  1
  O  O243  1  0.818052  0.145681  0.670815  1
  O  O244  1  0.744080  0.664644  0.329887  1
  O  O245  1  0.755949  0.164650  0.329876  1
  O  O246  1  0.755949  0.164642  0.670208  1
  O  O247  1  0.744079  0.664650  0.670219  1
  O  O248  1  0.789494  0.528292  0.331760  1
  O  O249  1  0.710537  0.028285  0.331734  1
  O  O250  1  0.710534  0.028289  0.668338  1
  O  O251  1  0.789491  0.528289  0.668359  1
  O  O252  1  0.788322  0.183406  0.500048  1
  O  O253  1  0.711705  0.683401  0.500046  1
  O  O254  1  0.792828  0.323446  0.361094  1
  O  O255  1  0.707200  0.823435  0.361082  1
  O  O256  1  0.707200  0.823440  0.639000  1
  O  O257  1  0.792828  0.323441  0.639015  1
  O  O258  1  0.812436  0.445850  0.500059  1
  O  O259  1  0.687592  0.945847  0.500035  1
  Si  Si260  1  0.819283  0.726638  0.121586  1
  Si  Si261  1  0.680747  0.226632  0.121555  1
  Si  Si262  1  0.680745  0.226640  0.878505  1
  Si  Si263  1  0.819282  0.726637  0.878537  1
  Si  Si264  1  0.819983  0.731468  0.500064  1
  Si  Si265  1  0.680045  0.231460  0.500028  1
  Si  Si266  1  0.780704  0.646439  0.312693  1
  Si  Si267  1  0.719325  0.146430  0.312663  1
  Si  Si268  1  0.719324  0.146433  0.687400  1
  Si  Si269  1  0.780702  0.646437  0.687429  1
  Si  Si270  1  0.788432  0.202593  0.377641  1
  Si  Si271  1  0.711594  0.702586  0.377640  1
  Si  Si272  1  0.711595  0.702590  0.622454  1
  Si  Si273  1  0.788433  0.202589  0.622457  1
  Si  Si274  1  0.808981  0.433166  0.377157  1
  Si  Si275  1  0.691049  0.933162  0.377134  1
  Si  Si276  1  0.691047  0.933162  0.622937  1
  Si  Si277  1  0.808979  0.433165  0.622963  1
  O  O278  1  0.666704  0.345545  0.500035  1
  O  O279  1  0.833324  0.845549  0.500066  1
  O  O280  1  0.907517  0.700275  0.142408  1
  O  O281  1  0.907516  0.700279  0.857725  1
  O  O282  1  0.886012  0.578127  0.000064  1
  O  O283  1  0.849435  0.655503  0.137865  1
  O  O284  1  0.849433  0.655505  0.862261  1
  O  O285  1  0.886381  0.512554  0.201886  1
  O  O286  1  0.886379  0.512557  0.798241  1
  O  O287  1  0.928353  0.823044  0.000068  1
  O  O288  1  0.890306  0.888166  0.140584  1
  O  O289  1  0.890304  0.888169  0.859552  1
  O  O290  1  0.947900  0.848697  0.199466  1
  O  O291  1  0.947899  0.848699  0.800673  1
  O  O292  1  0.853607  0.962204  0.000067  1
  O  O293  1  0.850926  0.028469  0.200818  1
  O  O294  1  0.850922  0.028471  0.799315  1
  O  O295  1  0.908289  0.699478  0.500067  1
  O  O296  1  0.849865  0.657929  0.500060  1
  O  O297  1  0.887676  0.537750  0.399484  1
  O  O298  1  0.887675  0.537749  0.600643  1
  O  O299  1  0.892851  0.890247  0.500060  1
  O  O300  1  0.942272  0.830454  0.398419  1
  O  O301  1  0.942270  0.830458  0.601721  1
  Si  Si302  1  0.967087  0.113972  0.622981  1
  O  O303  1  0.853600  0.003239  0.398593  1
  O  O304  1  0.853603  0.003232  0.601544  1
  O  O305  1  0.878877  0.164231  0.325809  1
  O  O306  1  0.878876  0.164232  0.674327  1
  O  O307  1  0.843300  0.432272  0.326959  1
  O  O308  1  0.843297  0.432273  0.673166  1
  O  O309  1  0.898827  0.352267  0.332557  1
  O  O310  1  0.898825  0.352268  0.667577  1
  O  O311  1  0.958127  0.004214  0.329349  1
  O  O312  1  0.958126  0.004215  0.670794  1
  O  O313  1  0.998995  0.858237  0.329283  1
  O  O314  1  0.998993  0.858235  0.670862  1
  O  O315  1  0.897664  0.240686  0.500068  1
  O  O316  1  0.938747  0.193282  0.359946  1
  O  O317  1  0.938746  0.193284  0.640196  1
  O  O318  1  0.970837  0.099299  0.500073  1
  Si  Si319  1  0.883533  0.606728  0.121568  1
  Si  Si320  1  0.883532  0.606730  0.878559  1
  Si  Si321  1  0.920086  0.815258  0.121837  1
  Si  Si322  1  0.920084  0.815260  0.878302  1
  Si  Si323  1  0.855959  0.934816  0.121776  1
  Si  Si324  1  0.855957  0.934817  0.878356  1
  Si  Si325  1  0.883950  0.607333  0.500064  1
  Si  Si326  1  0.921885  0.812893  0.500067  1
  Si  Si327  1  0.858248  0.936684  0.500066  1
  Si  Si328  1  0.850267  0.087093  0.310232  1
  Si  Si329  1  0.850266  0.087092  0.689898  1
  Si  Si330  1  0.879829  0.456171  0.310994  1
  Si  Si331  1  0.879827  0.456172  0.689135  1
  Si  Si332  1  0.962425  0.883571  0.309248  1
  Si  Si333  1  0.962423  0.883572  0.690891  1
  Si  Si334  1  0.904124  0.238956  0.377561  1
  Si  Si335  1  0.904123  0.238957  0.622577  1
  Si  Si336  1  0.967088  0.113969  0.377163  1
