# generated using pymatgen
data_SiO2
_symmetry_space_group_name_H-M   'P 1'
_cell_length_a   15.19181014
_cell_length_b   15.19199820
_cell_length_c   11.87220547
_cell_angle_alpha   90.00000000
_cell_angle_beta   90.00000000
_cell_angle_gamma   90.00000000
_symmetry_Int_Tables_number   1
_chemical_formula_structural   SiO2
_chemical_formula_sum   'Si48 O96'
_cell_volume   2740.03322441
_cell_formula_units_Z   48
loop_
 _symmetry_equiv_pos_site_id
 _symmetry_equiv_pos_as_xyz
  1  'x, y, z'
loop_
 _atom_site_type_symbol
 _atom_site_label
 _atom_site_symmetry_multiplicity
 _atom_site_fract_x
 _atom_site_fract_y
 _atom_site_fract_z
 _atom_site_occupancy
  Si  Si1  1  0.411534  0.226260  0.190551  1
  Si  Si2  1  0.271552  0.089712  0.187424  1
  Si  Si3  1  0.413191  0.231057  0.817507  1
  Si  Si4  1  0.270017  0.086620  0.815752  1
  Si  Si5  1  0.140705  0.026274  0.370883  1
  Si  Si6  1  0.140674  0.027121  0.629312  1
  Si  Si7  1  0.034601  0.319523  0.998804  1
  Si  Si8  1  0.177031  0.177546  0.000743  1
  Si  Si9  1  0.320130  0.324466  0.999753  1
  O  O10  1  0.369561  0.297791  0.110999  1
  O  O11  1  0.199210  0.130687  0.112083  1
  O  O12  1  0.376108  0.304440  0.894635  1
  O  O13  1  0.197213  0.122154  0.895058  1
  O  O14  1  0.454261  0.277356  0.291249  1
  O  O15  1  0.221431  0.045241  0.289686  1
  O  O16  1  0.452898  0.279109  0.711115  1
  O  O17  1  0.221333  0.047438  0.709674  1
  O  O18  1  0.338598  0.160799  0.222899  1
  O  O19  1  0.336341  0.164211  0.788774  1
  O  O20  1  0.479131  0.181817  0.107903  1
  O  O21  1  0.316839  0.021775  0.104585  1
  O  O22  1  0.481048  0.181918  0.890607  1
  O  O23  1  0.318940  0.017778  0.888101  1
  O  O24  1  0.088373  0.230489  0.999476  1
  O  O25  1  0.246115  0.253502  0.993626  1
  O  O26  1  0.065937  0.096522  0.350897  1
  O  O27  1  0.065255  0.096878  0.648776  1
  O  O28  1  0.163931  0.031777  0.500056  1
  Si  Si29  1  0.227959  0.585474  0.187022  1
  Si  Si30  1  0.230924  0.589415  0.814327  1
  Si  Si31  1  0.472831  0.358593  0.370874  1
  Si  Si32  1  0.359220  0.527133  0.370314  1
  Si  Si33  1  0.472424  0.359424  0.629763  1
  Si  Si34  1  0.358647  0.527529  0.629375  1
  Si  Si35  1  0.182726  0.461865  0.003525  1
  O  O36  1  0.299212  0.624931  0.105516  1
  O  O37  1  0.303900  0.629749  0.888612  1
  O  O38  1  0.278396  0.545899  0.290170  1
  O  O39  1  0.278155  0.547114  0.710146  1
  O  O40  1  0.180513  0.517507  0.112389  1
  O  O41  1  0.185714  0.521639  0.895336  1
  O  O42  1  0.271134  0.412247  0.003850  1
  O  O43  1  0.100702  0.399163  0.999136  1
  O  O44  1  0.403041  0.434213  0.350693  1
  O  O45  1  0.434598  0.597140  0.350212  1
  O  O46  1  0.402444  0.434705  0.649206  1
  O  O47  1  0.434332  0.597442  0.648524  1
  O  O48  1  0.335937  0.532582  0.499738  1
  O  O49  1  0.162424  0.661711  0.216163  1
  O  O50  1  0.162059  0.662492  0.784621  1
  O  O51  1  0.467430  0.335970  0.500504  1
  Si  Si52  1  0.089357  0.730399  0.186081  1
  Si  Si53  1  0.085880  0.728156  0.813691  1
  Si  Si54  1  0.027068  0.858214  0.370753  1
  Si  Si55  1  0.027182  0.859022  0.629741  1
  Si  Si56  1  0.462465  0.816687  0.003566  1
  Si  Si57  1  0.317854  0.961559  0.996234  1
  Si  Si58  1  0.325141  0.679647  0.998305  1
  Si  Si59  1  0.180211  0.824685  0.002671  1
  O  O60  1  0.129982  0.803312  0.112039  1
  O  O61  1  0.125550  0.799192  0.895244  1
  O  O62  1  0.046743  0.777782  0.289968  1
  O  O63  1  0.046339  0.778625  0.710452  1
  O  O64  1  0.032333  0.835515  0.500377  1
  O  O65  1  0.097197  0.934265  0.649543  1
  O  O66  1  0.021940  0.684924  0.104868  1
  O  O67  1  0.017683  0.680680  0.887848  1
  O  O68  1  0.413633  0.727682  0.003891  1
  O  O69  1  0.228730  0.913007  0.997907  1
  O  O70  1  0.398040  0.897073  0.999227  1
  O  O71  1  0.256193  0.755671  0.000434  1
  O  O72  1  0.096916  0.933625  0.351234  1
  Si  Si73  1  0.913343  0.270035  0.183417  1
  Si  Si74  1  0.913694  0.271752  0.812702  1
  Si  Si75  1  0.973485  0.140704  0.370135  1
  Si  Si76  1  0.972659  0.140999  0.628841  1
  Si  Si77  1  0.537690  0.182325  0.998083  1
  Si  Si78  1  0.683285  0.037740  0.002424  1
  Si  Si79  1  0.674975  0.319616  0.997665  1
  Si  Si80  1  0.820473  0.174976  0.002657  1
  O  O81  1  0.874003  0.196699  0.108815  1
  O  O82  1  0.873329  0.200253  0.893485  1
  O  O83  1  0.954902  0.221493  0.288624  1
  O  O84  1  0.953967  0.221626  0.709607  1
  O  O85  1  0.967819  0.164097  0.499346  1
  O  O86  1  0.902374  0.065762  0.648496  1
  O  O87  1  0.978855  0.318909  0.106848  1
  O  O88  1  0.980256  0.319329  0.889078  1
  O  O89  1  0.586544  0.271260  0.000146  1
  O  O90  1  0.772342  0.086492  0.001623  1
  O  O91  1  0.602791  0.102301  0.998806  1
  O  O92  1  0.744439  0.243971  0.002021  1
  O  O93  1  0.903568  0.065433  0.350239  1
  Si  Si94  1  0.771196  0.413997  0.186910  1
  Si  Si95  1  0.769091  0.410893  0.814274  1
  Si  Si96  1  0.527429  0.641102  0.369701  1
  Si  Si97  1  0.641118  0.472602  0.370793  1
  Si  Si98  1  0.527152  0.641362  0.628720  1
  Si  Si99  1  0.640853  0.472861  0.629911  1
  Si  Si100  1  0.817085  0.537942  0.003997  1
  O  O101  1  0.699834  0.374661  0.105282  1
  O  O102  1  0.696610  0.369716  0.888354  1
  O  O103  1  0.721624  0.453051  0.290806  1
  O  O104  1  0.721397  0.453677  0.710745  1
  O  O105  1  0.818810  0.482264  0.112821  1
  O  O106  1  0.814608  0.478284  0.895660  1
  O  O107  1  0.728098  0.586862  0.003807  1
  O  O108  1  0.897569  0.602410  0.000482  1
  O  O109  1  0.597278  0.565441  0.350320  1
  O  O110  1  0.565718  0.402541  0.351058  1
  O  O111  1  0.597065  0.565881  0.648746  1
  O  O112  1  0.565147  0.403179  0.649461  1
  O  O113  1  0.664059  0.467510  0.500420  1
  O  O114  1  0.532528  0.664286  0.499177  1
  O  O115  1  0.837451  0.337242  0.214425  1
  O  O116  1  0.837587  0.337638  0.783486  1
  Si  Si117  1  0.586333  0.772762  0.186795  1
  Si  Si118  1  0.728449  0.914110  0.185646  1
  Si  Si119  1  0.589054  0.768644  0.813833  1
  Si  Si120  1  0.730484  0.910848  0.812776  1
  Si  Si121  1  0.859376  0.972826  0.369590  1
  Si  Si122  1  0.858655  0.972842  0.628577  1
  Si  Si123  1  0.962165  0.682799  0.996717  1
  Si  Si124  1  0.824938  0.820071  0.995941  1
  Si  Si125  1  0.679969  0.675290  0.997775  1
  O  O126  1  0.626884  0.702000  0.105792  1
  O  O127  1  0.799070  0.873147  0.104533  1
  O  O128  1  0.628350  0.695428  0.888899  1
  O  O129  1  0.803874  0.871855  0.887610  1
  O  O130  1  0.546678  0.721912  0.289644  1
  O  O131  1  0.779115  0.953832  0.288612  1
  O  O132  1  0.546615  0.721616  0.709699  1
  O  O133  1  0.777781  0.953283  0.708754  1
  O  O134  1  0.661482  0.839465  0.216245  1
  O  O135  1  0.663316  0.836094  0.784142  1
  O  O136  1  0.518089  0.819586  0.112189  1
  O  O137  1  0.681344  0.982309  0.111245  1
  O  O138  1  0.521787  0.814498  0.894923  1
  O  O139  1  0.684760  0.978184  0.893937  1
  O  O140  1  0.913435  0.771869  0.997722  1
  O  O141  1  0.756047  0.744071  0.995228  1
  O  O142  1  0.934395  0.902372  0.350321  1
  O  O143  1  0.934348  0.903112  0.648634  1
  O  O144  1  0.835911  0.967657  0.498979  1
