# generated using pymatgen
data_SiO2
_symmetry_space_group_name_H-M   'P 1'
_cell_length_a   13.81540410
_cell_length_b   23.87154993
_cell_length_c   18.13110130
_cell_angle_alpha   90.00000000
_cell_angle_beta   90.00000000
_cell_angle_gamma   90.00000000
_symmetry_Int_Tables_number   1
_chemical_formula_structural   SiO2
_chemical_formula_sum   'Si112 O224'
_cell_volume   5979.5485231
_cell_formula_units_Z   112
loop_
 _symmetry_equiv_pos_site_id
 _symmetry_equiv_pos_as_xyz
  1  'x, y, z'
loop_
 _atom_site_type_symbol
 _atom_site_label
 _atom_site_symmetry_multiplicity
 _atom_site_fract_x
 _atom_site_fract_y
 _atom_site_fract_z
 _atom_site_occupancy
  O  O1  1  0.147897  0.011607  0.361703  1
  O  O2  1  0.852169  0.011608  0.361692  1
  O  O3  1  0.352160  0.011620  0.138377  1
  O  O4  1  0.647876  0.011616  0.138365  1
  O  O5  1  0.249997  0.050313  0.250033  1
  O  O6  1  0.749986  0.050309  0.250043  1
  O  O7  1  0.237673  0.104599  0.370511  1
  O  O8  1  0.762306  0.104576  0.370535  1
  O  O9  1  0.262294  0.104591  0.129550  1
  O  O10  1  0.737666  0.104604  0.129570  1
  O  O11  1  0.092827  0.096854  0.289229  1
  O  O12  1  0.907132  0.096876  0.289228  1
  O  O13  1  0.407132  0.096885  0.210846  1
  O  O14  1  0.592822  0.096860  0.210847  1
  O  O15  1  0.253625  0.154873  0.493791  1
  O  O16  1  0.746346  0.154827  0.493828  1
  O  O17  1  0.246321  0.154840  0.006260  1
  O  O18  1  0.753613  0.154869  0.006284  1
  O  O19  1  0.250195  0.210996  0.374237  1
  O  O20  1  0.749827  0.210975  0.374284  1
  O  O21  1  0.249818  0.210990  0.125799  1
  O  O22  1  0.750153  0.211003  0.125828  1
  O  O23  1  0.399038  0.151830  0.406959  1
  O  O24  1  0.600953  0.151821  0.406971  1
  O  O25  1  0.100934  0.151836  0.093118  1
  O  O26  1  0.899019  0.151843  0.093128  1
  O  O27  1  0.239084  0.316433  0.129525  1
  O  O28  1  0.760894  0.316443  0.129562  1
  O  O29  1  0.260920  0.316436  0.370526  1
  O  O30  1  0.739090  0.316417  0.370552  1
  O  O31  1  0.092465  0.322466  0.045065  1
  O  O32  1  0.907467  0.322447  0.045053  1
  O  O33  1  0.407494  0.322435  0.455038  1
  O  O34  1  0.592490  0.322458  0.455025  1
  O  O35  1  0.249951  0.259109  0.250021  1
  O  O36  1  0.749991  0.259096  0.250057  1
  O  O37  1  0.100231  0.265993  0.339781  1
  O  O38  1  0.899760  0.265979  0.339789  1
  O  O39  1  0.399747  0.265991  0.160317  1
  O  O40  1  0.600219  0.266000  0.160332  1
  O  O41  1  0.000040  0.240016  0.455959  1
  O  O42  1  0.500008  0.240033  0.044139  1
  O  O43  1  0.999986  0.238194  0.094617  1
  O  O44  1  0.500012  0.238181  0.405478  1
  O  O45  1  0.000007  0.179555  0.342822  1
  O  O46  1  0.499998  0.179568  0.157267  1
  O  O47  1  0.999995  0.166317  0.206036  1
  O  O48  1  0.500006  0.166315  0.294054  1
  Si  Si49  1  0.182976  0.063948  0.317671  1
  Si  Si50  1  0.817015  0.063944  0.317678  1
  Si  Si51  1  0.317016  0.063954  0.182395  1
  Si  Si52  1  0.682967  0.063951  0.182405  1
  Si  Si53  1  0.284883  0.155256  0.411069  1
  Si  Si54  1  0.715106  0.155234  0.411100  1
  Si  Si55  1  0.215087  0.155248  0.088989  1
  Si  Si56  1  0.784866  0.155262  0.089009  1
  Si  Si57  1  0.214346  0.264035  0.331637  1
  Si  Si58  1  0.785644  0.264012  0.331663  1
  Si  Si59  1  0.285627  0.264028  0.168422  1
  Si  Si60  1  0.714338  0.264037  0.168453  1
  Si  Si61  1  0.999977  0.286163  0.035310  1
  Si  Si62  1  0.500005  0.286152  0.464782  1
  Si  Si63  1  0.000003  0.242479  0.369339  1
  Si  Si64  1  0.499989  0.242494  0.130760  1
  Si  Si65  1  0.999991  0.133516  0.281103  1
  Si  Si66  1  0.499991  0.133524  0.218979  1
  Si  Si67  1  0.500001  0.175052  0.379865  1
  Si  Si68  1  0.999981  0.175063  0.120226  1
  O  O69  1  0.500034  0.037891  0.915460  1
  O  O70  1  0.000066  0.037882  0.584605  1
  O  O71  1  0.667226  0.086223  0.920035  1
  O  O72  1  0.332829  0.086234  0.920017  1
  O  O73  1  0.832859  0.086222  0.580070  1
  O  O74  1  0.167269  0.086204  0.580028  1
  O  O75  1  0.250159  0.288964  0.874243  1
  O  O76  1  0.749811  0.288974  0.874277  1
  O  O77  1  0.249831  0.288961  0.625798  1
  O  O78  1  0.750186  0.288951  0.625826  1
  O  O79  1  0.239098  0.183517  0.629534  1
  O  O80  1  0.760916  0.183511  0.629558  1
  O  O81  1  0.260896  0.183524  0.870532  1
  O  O82  1  0.739076  0.183533  0.870552  1
  O  O83  1  0.092479  0.177474  0.545081  1
  O  O84  1  0.907482  0.177517  0.545042  1
  O  O85  1  0.407464  0.177525  0.955049  1
  O  O86  1  0.592462  0.177494  0.955021  1
  O  O87  1  0.249966  0.240849  0.750027  1
  O  O88  1  0.749964  0.240853  0.750053  1
  O  O89  1  0.100213  0.233962  0.839771  1
  O  O90  1  0.899744  0.233974  0.839773  1
  O  O91  1  0.399758  0.233963  0.660314  1
  O  O92  1  0.600231  0.233954  0.660308  1
  O  O93  1  0.999990  0.259933  0.955956  1
  O  O94  1  0.500017  0.259925  0.544136  1
  O  O95  1  0.000016  0.261761  0.594617  1
  O  O96  1  0.499990  0.261772  0.905478  1
  O  O97  1  0.999998  0.320396  0.842823  1
  O  O98  1  0.500000  0.320389  0.657268  1
  Si  Si99  1  0.000008  0.324892  0.620224  1
  Si  Si100  1  0.499986  0.324901  0.879864  1
  Si  Si101  1  0.611947  0.028837  0.923519  1
  Si  Si102  1  0.388119  0.028852  0.923523  1
  Si  Si103  1  0.888150  0.028841  0.576549  1
  Si  Si104  1  0.111978  0.028822  0.576545  1
  Si  Si105  1  0.190838  0.149452  0.565061  1
  Si  Si106  1  0.809182  0.149452  0.565081  1
  Si  Si107  1  0.309160  0.149464  0.935008  1
  Si  Si108  1  0.690810  0.149466  0.935020  1
  Si  Si109  1  0.214330  0.235924  0.831636  1
  Si  Si110  1  0.785626  0.235936  0.831657  1
  Si  Si111  1  0.285639  0.235925  0.668427  1
  Si  Si112  1  0.714347  0.235917  0.668441  1
  Si  Si113  1  0.000008  0.213790  0.535313  1
  Si  Si114  1  0.499982  0.213803  0.964785  1
  Si  Si115  1  0.999983  0.257471  0.869336  1
  Si  Si116  1  0.499997  0.257464  0.630756  1
  O  O117  1  0.000080  0.666317  0.294044  1
  O  O118  1  0.872455  0.499970  0.000030  1
  O  O119  1  0.500051  0.462063  0.415456  1
  O  O120  1  0.000030  0.462071  0.084602  1
  O  O121  1  0.647925  0.511609  0.361692  1
  O  O122  1  0.352201  0.511605  0.361689  1
  O  O123  1  0.852183  0.511619  0.138366  1
  O  O124  1  0.147901  0.511621  0.138364  1
  O  O125  1  0.667242  0.413729  0.420029  1
  O  O126  1  0.332844  0.413726  0.420016  1
  O  O127  1  0.832814  0.413736  0.080059  1
  O  O128  1  0.167224  0.413740  0.080035  1
  O  O129  1  0.750086  0.550317  0.250043  1
  O  O130  1  0.250088  0.550307  0.250015  1
  O  O131  1  0.737760  0.604588  0.370530  1
  O  O132  1  0.262393  0.604587  0.370499  1
  O  O133  1  0.762406  0.604612  0.129571  1
  O  O134  1  0.237777  0.604586  0.129534  1
  O  O135  1  0.592932  0.596872  0.289226  1
  O  O136  1  0.407242  0.596863  0.289223  1
  O  O137  1  0.907255  0.596862  0.210844  1
  O  O138  1  0.092948  0.596885  0.210839  1
  O  O139  1  0.753741  0.654843  0.493817  1
  O  O140  1  0.246460  0.654854  0.493784  1
  O  O141  1  0.746463  0.654878  0.006287  1
  O  O142  1  0.253749  0.654836  0.006244  1
  O  O143  1  0.899129  0.651825  0.406958  1
  O  O144  1  0.101046  0.651830  0.406951  1
  O  O145  1  0.601051  0.651845  0.093121  1
  O  O146  1  0.399136  0.651832  0.093108  1
  Si  Si147  1  0.611964  0.471115  0.423516  1
  Si  Si148  1  0.388136  0.471107  0.423516  1
  Si  Si149  1  0.888114  0.471115  0.076546  1
  Si  Si150  1  0.111943  0.471125  0.076541  1
  Si  Si151  1  0.683057  0.563949  0.317678  1
  Si  Si152  1  0.317104  0.563943  0.317657  1
  Si  Si153  1  0.817103  0.563957  0.182404  1
  Si  Si154  1  0.183059  0.563952  0.182383  1
  Si  Si155  1  0.784976  0.655245  0.411088  1
  Si  Si156  1  0.215200  0.655247  0.411062  1
  Si  Si157  1  0.715205  0.655269  0.089010  1
  Si  Si158  1  0.284983  0.655244  0.088974  1
  Si  Si159  1  0.190812  0.350497  0.065057  1
  Si  Si160  1  0.809154  0.350502  0.065082  1
  Si  Si161  1  0.309186  0.350494  0.435004  1
  Si  Si162  1  0.690834  0.350488  0.435019  1
  Si  Si163  1  0.500082  0.633520  0.281097  1
  Si  Si164  1  0.000089  0.633524  0.218971  1
  O  O165  1  0.500079  0.666318  0.206028  1
  O  O166  1  0.127599  0.499988  0.000029  1
  Si  Si167  1  0.499997  0.366433  0.718979  1
  O  O168  1  0.500001  0.333640  0.794052  1
  O  O169  1  0.000025  0.537892  0.915460  1
  O  O170  1  0.500051  0.537880  0.584603  1
  O  O171  1  0.147874  0.488348  0.861691  1
  O  O172  1  0.852156  0.488346  0.861694  1
  O  O173  1  0.352174  0.488334  0.638366  1
  O  O174  1  0.647899  0.488334  0.638364  1
  O  O175  1  0.167239  0.586226  0.920007  1
  O  O176  1  0.832833  0.586225  0.920038  1
  O  O177  1  0.332857  0.586213  0.580033  1
  O  O178  1  0.667265  0.586215  0.580050  1
  O  O179  1  0.249992  0.449645  0.750021  1
  O  O180  1  0.749994  0.449640  0.750047  1
  O  O181  1  0.237671  0.395363  0.870505  1
  O  O182  1  0.762304  0.395372  0.870539  1
  O  O183  1  0.262321  0.395361  0.629546  1
  O  O184  1  0.737694  0.395348  0.629573  1
  O  O185  1  0.092828  0.403095  0.789225  1
  O  O186  1  0.907136  0.403076  0.789235  1
  O  O187  1  0.407145  0.403079  0.710851  1
  O  O188  1  0.592839  0.403088  0.710845  1
  O  O189  1  0.253609  0.345093  0.993790  1
  O  O190  1  0.746325  0.345114  0.993826  1
  O  O191  1  0.246353  0.345110  0.506257  1
  O  O192  1  0.753640  0.345089  0.506283  1
  O  O193  1  0.399021  0.348123  0.906955  1
  O  O194  1  0.600938  0.348130  0.906969  1
  O  O195  1  0.100961  0.348119  0.593118  1
  O  O196  1  0.899048  0.348112  0.593121  1
  Si  Si197  1  0.111940  0.528847  0.923516  1
  Si  Si198  1  0.888111  0.528839  0.923521  1
  Si  Si199  1  0.388137  0.528828  0.576542  1
  Si  Si200  1  0.611966  0.528836  0.576543  1
  Si  Si201  1  0.182972  0.436009  0.817661  1
  Si  Si202  1  0.817017  0.436005  0.817684  1
  Si  Si203  1  0.317026  0.436004  0.682392  1
  Si  Si204  1  0.682984  0.435998  0.682405  1
  Si  Si205  1  0.284868  0.344703  0.911067  1
  Si  Si206  1  0.715092  0.344714  0.911096  1
  Si  Si207  1  0.215114  0.344704  0.588986  1
  Si  Si208  1  0.784894  0.344692  0.589007  1
  Si  Si209  1  0.690918  0.649451  0.565075  1
  Si  Si210  1  0.309261  0.649454  0.565049  1
  Si  Si211  1  0.809260  0.649469  0.935020  1
  Si  Si212  1  0.190912  0.649456  0.934991  1
  Si  Si213  1  0.999992  0.366434  0.781104  1
  O  O214  1  0.000004  0.333636  0.706035  1
  O  O215  1  0.372480  0.499966  0.500030  1
  O  O216  1  0.627622  0.499979  0.500028  1
  Si  Si217  1  0.000086  0.742492  0.130747  1
  Si  Si218  1  0.500088  0.742483  0.369330  1
  O  O219  1  0.627601  0.999969  0.000028  1
  O  O220  1  0.000044  0.962064  0.415460  1
  O  O221  1  0.500027  0.962071  0.084604  1
  O  O222  1  0.167248  0.913718  0.420003  1
  O  O223  1  0.832849  0.913736  0.420043  1
  O  O224  1  0.332826  0.913744  0.080031  1
  O  O225  1  0.667236  0.913734  0.080053  1
  Si  Si226  1  0.000093  0.786151  0.464776  1
  O  O227  1  0.750263  0.710987  0.374271  1
  O  O228  1  0.249913  0.710985  0.374237  1
  O  O229  1  0.749908  0.711010  0.125833  1
  O  O230  1  0.250253  0.710986  0.125783  1
  O  O231  1  0.739181  0.816449  0.129551  1
  O  O232  1  0.260992  0.816429  0.129525  1
  O  O233  1  0.760991  0.816430  0.370554  1
  O  O234  1  0.239175  0.816426  0.370516  1
  O  O235  1  0.592612  0.822436  0.045032  1
  O  O236  1  0.407615  0.822477  0.045075  1
  O  O237  1  0.907614  0.822461  0.455014  1
  O  O238  1  0.092612  0.822429  0.455036  1
  O  O239  1  0.750103  0.759114  0.250052  1
  O  O240  1  0.250115  0.759094  0.250015  1
  O  O241  1  0.600325  0.765985  0.339770  1
  O  O242  1  0.399857  0.765989  0.339765  1
  O  O243  1  0.899859  0.766003  0.160315  1
  O  O244  1  0.100328  0.765988  0.160307  1
  O  O245  1  0.500086  0.740020  0.455950  1
  O  O246  1  0.000078  0.740029  0.044127  1
  O  O247  1  0.500078  0.738192  0.094607  1
  O  O248  1  0.000082  0.738182  0.405469  1
  O  O249  1  0.500082  0.679558  0.342816  1
  O  O250  1  0.000075  0.679566  0.157258  1
  Si  Si251  1  0.500086  0.675062  0.120217  1
  Si  Si252  1  0.000084  0.675053  0.379856  1
  Si  Si253  1  0.111960  0.971100  0.423519  1
  Si  Si254  1  0.888132  0.971120  0.423522  1
  Si  Si255  1  0.388114  0.971128  0.076547  1
  Si  Si256  1  0.611942  0.971113  0.076543  1
  Si  Si257  1  0.690911  0.850503  0.065071  1
  Si  Si258  1  0.309256  0.850498  0.065058  1
  Si  Si259  1  0.809266  0.850492  0.435022  1
  Si  Si260  1  0.190917  0.850488  0.434994  1
  Si  Si261  1  0.714443  0.764026  0.331656  1
  Si  Si262  1  0.285742  0.764023  0.331626  1
  Si  Si263  1  0.785742  0.764046  0.168445  1
  Si  Si264  1  0.214447  0.764021  0.168415  1
  Si  Si265  1  0.500087  0.786163  0.035304  1
  O  O266  1  0.372459  0.999998  0.000040  1
  Si  Si267  1  0.500095  0.824890  0.620220  1
  O  O268  1  0.647908  0.988347  0.861690  1
  O  O269  1  0.352178  0.988349  0.861704  1
  O  O270  1  0.852217  0.988335  0.638366  1
  O  O271  1  0.147931  0.988330  0.638373  1
  O  O272  1  0.750106  0.949649  0.750045  1
  O  O273  1  0.250094  0.949637  0.750027  1
  O  O274  1  0.737785  0.895381  0.870534  1
  O  O275  1  0.262424  0.895351  0.870504  1
  O  O276  1  0.762412  0.895350  0.629574  1
  O  O277  1  0.237790  0.895358  0.629541  1
  O  O278  1  0.592964  0.903075  0.789221  1
  O  O279  1  0.407273  0.903107  0.789228  1
  O  O280  1  0.907262  0.903089  0.710846  1
  O  O281  1  0.092955  0.903065  0.710840  1
  O  O282  1  0.753751  0.845124  0.993820  1
  O  O283  1  0.746469  0.845087  0.506288  1
  O  O284  1  0.253757  0.845112  0.506245  1
  O  O285  1  0.750268  0.788981  0.874273  1
  O  O286  1  0.249899  0.788954  0.874232  1
  O  O287  1  0.749923  0.788950  0.625827  1
  O  O288  1  0.250261  0.788960  0.625785  1
  O  O289  1  0.899143  0.848133  0.906963  1
  O  O290  1  0.101059  0.848123  0.906953  1
  O  O291  1  0.601059  0.848110  0.593125  1
  O  O292  1  0.399144  0.848115  0.593106  1
  O  O293  1  0.739183  0.683509  0.629553  1
  O  O294  1  0.260992  0.683518  0.629518  1
  O  O295  1  0.761000  0.683538  0.870552  1
  O  O296  1  0.239178  0.683514  0.870513  1
  O  O297  1  0.592601  0.677503  0.545052  1
  O  O298  1  0.407604  0.677489  0.545053  1
  O  O299  1  0.907613  0.677494  0.955015  1
  O  O300  1  0.092609  0.677520  0.955027  1
  O  O301  1  0.750101  0.740852  0.750051  1
  O  O302  1  0.250134  0.740846  0.750012  1
  O  O303  1  0.600332  0.733976  0.839780  1
  O  O304  1  0.399861  0.733961  0.839768  1
  O  O305  1  0.899862  0.733951  0.660319  1
  O  O306  1  0.100333  0.733962  0.660308  1
  O  O307  1  0.500052  0.759937  0.955948  1
  O  O308  1  0.000073  0.759921  0.544129  1
  O  O309  1  0.500090  0.761759  0.594612  1
  O  O310  1  0.000084  0.761772  0.905470  1
  O  O311  1  0.500083  0.820400  0.842813  1
  O  O312  1  0.000083  0.820384  0.657259  1
  O  O313  1  0.500079  0.833639  0.706029  1
  O  O314  1  0.000088  0.833636  0.794046  1
  Si  Si315  1  0.683072  0.936012  0.817677  1
  Si  Si316  1  0.317114  0.936006  0.817667  1
  Si  Si317  1  0.817120  0.936002  0.682406  1
  Si  Si318  1  0.183074  0.935994  0.682390  1
  Si  Si319  1  0.784990  0.844721  0.911091  1
  Si  Si320  1  0.215213  0.844695  0.911063  1
  Si  Si321  1  0.715212  0.844692  0.589011  1
  Si  Si322  1  0.284991  0.844702  0.588975  1
  Si  Si323  1  0.714449  0.735941  0.831658  1
  Si  Si324  1  0.285746  0.735918  0.831626  1
  Si  Si325  1  0.785744  0.735913  0.668445  1
  Si  Si326  1  0.214453  0.735925  0.668414  1
  Si  Si327  1  0.500095  0.713790  0.535304  1
  Si  Si328  1  0.000096  0.713801  0.964773  1
  Si  Si329  1  0.500088  0.757475  0.869329  1
  Si  Si330  1  0.000091  0.757458  0.630749  1
  Si  Si331  1  0.500099  0.866440  0.781097  1
  Si  Si332  1  0.000096  0.866427  0.718971  1
  Si  Si333  1  0.000094  0.824901  0.879858  1
  O  O334  1  0.246471  0.845080  0.993786  1
  O  O335  1  0.872483  0.999992  0.500030  1
  O  O336  1  0.127627  0.999951  0.500038  1
