# generated using pymatgen
data_SiO2
_symmetry_space_group_name_H-M   'P 1'
_cell_length_a   19.41754394
_cell_length_b   19.41225325
_cell_length_c   11.34454198
_cell_angle_alpha   90.00000000
_cell_angle_beta   90.00000000
_cell_angle_gamma   120.00000000
_symmetry_Int_Tables_number   1
_chemical_formula_structural   SiO2
_chemical_formula_sum   'Si46 O92'
_cell_volume   3703.29103135
_cell_formula_units_Z   46
loop_
 _symmetry_equiv_pos_site_id
 _symmetry_equiv_pos_as_xyz
  1  'x, y, z'
loop_
 _atom_site_type_symbol
 _atom_site_label
 _atom_site_symmetry_multiplicity
 _atom_site_fract_x
 _atom_site_fract_y
 _atom_site_fract_z
 _atom_site_occupancy
  Si  Si1  1  0.090173  0.465069  0.364220  1
  Si  Si2  1  0.089987  0.465022  0.636289  1
  O  O3  1  0.102302  0.460513  0.500276  1
  O  O4  1  0.298700  0.458346  0.702740  1
  O  O5  1  0.298892  0.458399  0.297034  1
  O  O6  1  0.158092  0.457542  0.297342  1
  O  O7  1  0.157906  0.457518  0.703216  1
  Si  Si8  1  0.247629  0.496784  0.746000  1
  Si  Si9  1  0.247720  0.496813  0.254134  1
  Si  Si10  1  0.090173  0.624592  0.364115  1
  Si  Si11  1  0.090044  0.624566  0.636160  1
  Si  Si12  1  0.247534  0.750955  0.254284  1
  Si  Si13  1  0.247478  0.751014  0.745686  1
  Si  Si14  1  0.279890  0.718490  0.999966  1
  Si  Si15  1  0.280128  0.561560  0.000063  1
  Si  Si16  1  0.332380  0.666355  0.362459  1
  O  O17  1  0.157883  0.700080  0.297075  1
  O  O18  1  0.297858  0.840813  0.296645  1
  O  O19  1  0.297693  0.840805  0.702937  1
  O  O20  1  0.157749  0.700057  0.703212  1
  O  O21  1  0.102399  0.641343  0.500143  1
  O  O22  1  0.255396  0.511945  0.882558  1
  O  O23  1  0.100586  0.550037  0.342289  1
  O  O24  1  0.100375  0.549981  0.658149  1
  O  O25  1  0.288986  0.580211  0.314263  1
  O  O26  1  0.289330  0.709984  0.316425  1
  O  O27  1  0.289173  0.709947  0.683524  1
  O  O28  1  0.288773  0.580164  0.685841  1
  O  O29  1  0.255379  0.743233  0.882140  1
  O  O30  1  0.249508  0.624749  0.999879  1
  O  O31  1  0.255228  0.743034  0.117826  1
  O  O32  1  0.255193  0.511950  0.117572  1
  Si  Si33  1  0.332270  0.666315  0.637701  1
  O  O34  1  0.332604  0.664839  0.500082  1
  Si  Si35  1  0.374472  0.466347  0.363881  1
  Si  Si36  1  0.465532  0.375249  0.364116  1
  Si  Si37  1  0.623752  0.090998  0.364265  1
  Si  Si38  1  0.464267  0.091006  0.363727  1
  Si  Si39  1  0.463961  0.091006  0.635791  1
  Si  Si40  1  0.374314  0.466313  0.635964  1
  Si  Si41  1  0.465428  0.375275  0.636159  1
  Si  Si42  1  0.623421  0.091006  0.636318  1
  Si  Si43  1  0.496569  0.248904  0.254280  1
  Si  Si44  1  0.496455  0.248846  0.745689  1
  Si  Si45  1  0.561408  0.281303  0.999966  1
  O  O46  1  0.512167  0.256604  0.882134  1
  O  O47  1  0.512214  0.256803  0.117832  1
  O  O48  1  0.457776  0.299780  0.297032  1
  O  O49  1  0.457014  0.159046  0.296644  1
  O  O50  1  0.456858  0.159055  0.702937  1
  O  O51  1  0.457665  0.299803  0.703256  1
  O  O52  1  0.357727  0.461904  0.499901  1
  O  O53  1  0.461013  0.358490  0.500143  1
  O  O54  1  0.640312  0.103322  0.500326  1
  O  O55  1  0.459562  0.103244  0.499723  1
  O  O56  1  0.403569  0.404345  0.338448  1
  O  O57  1  0.624755  0.375037  0.999879  1
  O  O58  1  0.403388  0.404311  0.661586  1
  O  O59  1  0.550486  0.449803  0.342304  1
  O  O60  1  0.549220  0.101364  0.342089  1
  O  O61  1  0.550331  0.449859  0.658133  1
  O  O62  1  0.548878  0.101465  0.657979  1
  O  O63  1  0.579302  0.289874  0.316507  1
  O  O64  1  0.579182  0.289912  0.683443  1
  O  O65  1  0.624544  0.250666  0.000102  1
  Si  Si66  1  0.665922  0.333475  0.637700  1
  Si  Si67  1  0.665991  0.333435  0.362459  1
  Si  Si68  1  0.532635  0.908814  0.364268  1
  Si  Si69  1  0.625035  0.534765  0.364219  1
  Si  Si70  1  0.533928  0.625819  0.364068  1
  Si  Si71  1  0.373154  0.908831  0.363727  1
  Si  Si72  1  0.624897  0.534812  0.636288  1
  Si  Si73  1  0.533776  0.625850  0.636150  1
  Si  Si74  1  0.372849  0.908831  0.635792  1
  Si  Si75  1  0.532296  0.908806  0.636317  1
  Si  Si76  1  0.501877  0.751513  0.254335  1
  Si  Si77  1  0.501726  0.751511  0.746029  1
  Si  Si78  1  0.437020  0.718743  0.000210  1
  O  O79  1  0.486455  0.743589  0.882558  1
  O  O80  1  0.540527  0.841139  0.297302  1
  O  O81  1  0.541169  0.701072  0.297103  1
  O  O82  1  0.541162  0.701274  0.702938  1
  O  O83  1  0.540187  0.841177  0.703406  1
  O  O84  1  0.536871  0.896476  0.500326  1
  O  O85  1  0.641724  0.539321  0.500276  1
  O  O86  1  0.538381  0.642558  0.500103  1
  O  O87  1  0.356211  0.896595  0.499724  1
  O  O88  1  0.594702  0.999900  0.338852  1
  O  O89  1  0.595983  0.596792  0.338498  1
  O  O90  1  0.595828  0.596844  0.661859  1
  O  O91  1  0.402235  0.999925  0.338023  1
  O  O92  1  0.486506  0.743751  0.117821  1
  O  O93  1  0.449006  0.551333  0.341949  1
  O  O94  1  0.447745  0.898462  0.342097  1
  O  O95  1  0.448830  0.551267  0.658023  1
  O  O96  1  0.447301  0.898361  0.657972  1
  O  O97  1  0.418746  0.709705  0.315248  1
  O  O98  1  0.418574  0.709614  0.685172  1
  O  O99  1  0.373656  0.749106  0.000101  1
  O  O100  1  0.373899  0.624913  0.000256  1
  O  O101  1  0.594260  0.999900  0.661865  1
  O  O102  1  0.401903  0.999925  0.661429  1
  Si  Si103  1  0.908042  0.374005  0.364069  1
  Si  Si104  1  0.907859  0.373975  0.636150  1
  Si  Si105  1  0.750341  0.248260  0.254312  1
  Si  Si106  1  0.750192  0.248263  0.746051  1
  Si  Si107  1  0.718272  0.281023  0.000210  1
  Si  Si108  1  0.718549  0.438218  0.000063  1
  O  O109  1  0.699333  0.158653  0.297338  1
  O  O110  1  0.840048  0.298727  0.297143  1
  O  O111  1  0.839839  0.298526  0.702899  1
  O  O112  1  0.698956  0.158616  0.703369  1
  O  O113  1  0.895761  0.357271  0.500103  1
  O  O114  1  0.743371  0.487795  0.882523  1
  O  O115  1  0.897595  0.448493  0.341943  1
  O  O116  1  0.897484  0.448558  0.658030  1
  O  O117  1  0.708984  0.290129  0.314943  1
  O  O118  1  0.708713  0.419636  0.314484  1
  O  O119  1  0.708550  0.419684  0.685618  1
  O  O120  1  0.708904  0.290222  0.685475  1
  O  O121  1  0.748968  0.374860  0.000255  1
  O  O122  1  0.742771  0.255985  0.117781  1
  O  O123  1  0.743163  0.487790  0.117606  1
  O  O124  1  0.742881  0.256146  0.882598  1
  O  O125  1  0.667849  0.334623  0.500081  1
  O  O126  1  0.998907  0.402983  0.661861  1
  O  O127  1  0.999116  0.403036  0.338497  1
  Si  Si128  1  0.908048  0.533487  0.363882  1
  Si  Si129  1  0.907924  0.533520  0.635963  1
  O  O130  1  0.895746  0.537935  0.499901  1
  O  O131  1  0.840262  0.541476  0.702734  1
  O  O132  1  0.840400  0.541422  0.297041  1
  O  O133  1  0.700459  0.542273  0.297303  1
  O  O134  1  0.700297  0.542297  0.703254  1
  O  O135  1  0.999124  0.595493  0.338438  1
  O  O136  1  0.998978  0.595528  0.661596  1
  Si  Si137  1  0.750751  0.503004  0.745974  1
  Si  Si138  1  0.750812  0.502974  0.254159  1
