# generated using pymatgen
data_SiO2
_symmetry_space_group_name_H-M   'P 1'
_cell_length_a   19.05428913
_cell_length_b   19.04414329
_cell_length_c   14.09603100
_cell_angle_alpha   90.00000000
_cell_angle_beta   90.00000000
_cell_angle_gamma   120.00000000
_symmetry_Int_Tables_number   1
_chemical_formula_structural   SiO2
_chemical_formula_sum   'Si52 O104'
_cell_volume   4429.77501661
_cell_formula_units_Z   52
loop_
 _symmetry_equiv_pos_site_id
 _symmetry_equiv_pos_as_xyz
  1  'x, y, z'
loop_
 _atom_site_type_symbol
 _atom_site_label
 _atom_site_symmetry_multiplicity
 _atom_site_fract_x
 _atom_site_fract_y
 _atom_site_fract_z
 _atom_site_occupancy
  O  O1  1  0.297808  0.454076  0.336910  1
  O  O2  1  0.157532  0.453668  0.337925  1
  O  O3  1  0.297691  0.454520  0.662674  1
  O  O4  1  0.157168  0.453438  0.662477  1
  O  O5  1  0.000991  0.401679  0.368087  1
  Si  Si6  1  0.090787  0.463282  0.610225  1
  O  O7  1  0.102510  0.459815  0.500132  1
  Si  Si8  1  0.246874  0.493323  0.695565  1
  Si  Si9  1  0.247120  0.493293  0.304808  1
  Si  Si10  1  0.091381  0.463950  0.390028  1
  O  O11  1  0.000290  0.401046  0.632403  1
  O  O12  1  0.156868  0.703573  0.338544  1
  O  O13  1  0.296637  0.843941  0.336840  1
  O  O14  1  0.156647  0.702921  0.662638  1
  O  O15  1  0.295292  0.843901  0.660927  1
  O  O16  1  0.102005  0.550832  0.372332  1
  O  O17  1  0.101705  0.550232  0.628142  1
  O  O18  1  0.000504  0.598433  0.368579  1
  O  O19  1  0.102410  0.641747  0.500426  1
  O  O20  1  0.252922  0.745944  0.194958  1
  O  O21  1  0.253733  0.746995  0.805440  1
  O  O22  1  0.289645  0.711399  0.353080  1
  O  O23  1  0.289533  0.578846  0.353019  1
  O  O24  1  0.289855  0.711916  0.647403  1
  O  O25  1  0.289137  0.579063  0.647680  1
  O  O26  1  0.268226  0.735415  0.000164  1
  O  O27  1  0.263930  0.529859  0.000168  1
  O  O28  1  0.249807  0.625106  0.112087  1
  O  O29  1  0.249992  0.625412  0.888132  1
  O  O30  1  0.330663  0.666030  0.500329  1
  Si  Si31  1  0.091034  0.626836  0.390280  1
  Si  Si32  1  0.090884  0.626375  0.610503  1
  Si  Si33  1  0.246347  0.754019  0.305562  1
  Si  Si34  1  0.246302  0.754340  0.694743  1
  Si  Si35  1  0.282458  0.719061  0.105627  1
  Si  Si36  1  0.280345  0.562303  0.103301  1
  Si  Si37  1  0.282788  0.719419  0.894674  1
  Si  Si38  1  0.280349  0.562469  0.897124  1
  Si  Si39  1  0.332929  0.666725  0.391665  1
  O  O40  1  0.253399  0.507535  0.806377  1
  O  O41  1  0.000416  0.598069  0.632529  1
  O  O42  1  0.253415  0.507491  0.194086  1
  Si  Si43  1  0.332909  0.666968  0.609006  1
  O  O44  1  0.453359  0.156022  0.334675  1
  O  O45  1  0.457681  0.298124  0.338604  1
  O  O46  1  0.451926  0.157557  0.659750  1
  O  O47  1  0.453686  0.298155  0.663339  1
  O  O48  1  0.550188  0.101286  0.370936  1
  O  O49  1  0.551359  0.449648  0.373404  1
  O  O50  1  0.548635  0.102136  0.626427  1
  O  O51  1  0.551273  0.450527  0.628122  1
  O  O52  1  0.661107  0.330573  0.499141  1
  O  O53  1  0.402757  0.401867  0.368694  1
  O  O54  1  0.402064  0.402604  0.631865  1
  O  O55  1  0.458693  0.102337  0.497395  1
  O  O56  1  0.358304  0.460611  0.499738  1
  O  O57  1  0.640449  0.101952  0.499939  1
  O  O58  1  0.460804  0.358603  0.500484  1
  O  O59  1  0.501461  0.250248  0.192114  1
  O  O60  1  0.506219  0.252167  0.805597  1
  O  O61  1  0.581139  0.286742  0.344584  1
  O  O62  1  0.578250  0.289750  0.648297  1
  O  O63  1  0.531342  0.263014  0.000855  1
  O  O64  1  0.623656  0.249150  0.117259  1
  O  O65  1  0.623351  0.372259  0.113806  1
  O  O66  1  0.622708  0.246527  0.885794  1
  O  O67  1  0.623756  0.373055  0.888574  1
  Si  Si68  1  0.463283  0.090581  0.387506  1
  Si  Si69  1  0.373803  0.463942  0.389701  1
  Si  Si70  1  0.626154  0.090479  0.389734  1
  Si  Si71  1  0.465189  0.374177  0.391203  1
  Si  Si72  1  0.373837  0.464769  0.609838  1
  Si  Si73  1  0.461864  0.091255  0.607701  1
  Si  Si74  1  0.624669  0.090959  0.609950  1
  Si  Si75  1  0.464260  0.374301  0.610267  1
  Si  Si76  1  0.494008  0.244905  0.300705  1
  Si  Si77  1  0.491978  0.246628  0.694837  1
  Si  Si78  1  0.559398  0.278215  0.107699  1
  Si  Si79  1  0.562529  0.279087  0.895122  1
  Si  Si80  1  0.666396  0.332139  0.390497  1
  O  O81  1  0.399604  0.000915  0.630223  1
  O  O82  1  0.596001  0.000469  0.632600  1
  Si  Si83  1  0.665622  0.333302  0.607921  1
  O  O84  1  0.401291  0.000421  0.365509  1
  O  O85  1  0.545965  0.843317  0.338766  1
  O  O86  1  0.546428  0.703196  0.337613  1
  O  O87  1  0.544760  0.844061  0.663246  1
  O  O88  1  0.546903  0.704506  0.661507  1
  O  O89  1  0.448706  0.898969  0.372013  1
  O  O90  1  0.449853  0.550801  0.371931  1
  O  O91  1  0.447172  0.899276  0.627314  1
  O  O92  1  0.450085  0.551690  0.627466  1
  Si  Si93  1  0.434966  0.718996  0.105945  1
  O  O94  1  0.598986  0.598658  0.367751  1
  Si  Si95  1  0.435131  0.718989  0.894851  1
  O  O96  1  0.597870  0.999917  0.368354  1
  O  O97  1  0.599293  0.599644  0.632245  1
  O  O98  1  0.643055  0.541083  0.500550  1
  O  O99  1  0.538596  0.898283  0.500694  1
  O  O100  1  0.356894  0.899175  0.498548  1
  O  O101  1  0.540764  0.642513  0.499677  1
  O  O102  1  0.491066  0.745832  0.195651  1
  O  O103  1  0.491243  0.745484  0.805140  1
  O  O104  1  0.421533  0.710686  0.355502  1
  O  O105  1  0.421432  0.710779  0.645430  1
  O  O106  1  0.465666  0.735169  0.000432  1
  O  O107  1  0.375040  0.751694  0.115938  1
  O  O108  1  0.373650  0.625069  0.112071  1
  O  O109  1  0.375367  0.751884  0.884705  1
  O  O110  1  0.373689  0.625103  0.888606  1
  Si  Si111  1  0.627292  0.536477  0.390311  1
  Si  Si112  1  0.535450  0.909550  0.390439  1
  Si  Si113  1  0.372850  0.910355  0.388540  1
  Si  Si114  1  0.536722  0.626906  0.389611  1
  Si  Si115  1  0.534109  0.909863  0.610679  1
  Si  Si116  1  0.627682  0.537344  0.610675  1
  Si  Si117  1  0.371390  0.910377  0.608767  1
  Si  Si118  1  0.536985  0.627877  0.609881  1
  Si  Si119  1  0.506659  0.753539  0.306173  1
  Si  Si120  1  0.506622  0.754057  0.694562  1
  O  O121  1  0.844626  0.296385  0.338253  1
  O  O122  1  0.703285  0.156354  0.338519  1
  O  O123  1  0.842765  0.296478  0.662081  1
  O  O124  1  0.701365  0.156918  0.661958  1
  O  O125  1  0.899577  0.449259  0.372749  1
  O  O126  1  0.899095  0.448980  0.628189  1
  O  O127  1  0.898934  0.357869  0.500265  1
  O  O128  1  0.746455  0.254098  0.196152  1
  O  O129  1  0.745072  0.253543  0.805011  1
  O  O130  1  0.713515  0.289996  0.356529  1
  O  O131  1  0.710877  0.420806  0.354556  1
  O  O132  1  0.710667  0.289980  0.645195  1
  O  O133  1  0.710710  0.421710  0.644982  1
  O  O134  1  0.730707  0.264198  0.001206  1
  O  O135  1  0.733460  0.467905  0.000405  1
  O  O136  1  0.750778  0.374522  0.112994  1
  O  O137  1  0.747658  0.373193  0.888504  1
  O  O138  1  0.745789  0.490771  0.194890  1
  Si  Si139  1  0.910573  0.373207  0.390225  1
  Si  Si140  1  0.909777  0.372788  0.610426  1
  Si  Si141  1  0.754561  0.246156  0.306603  1
  Si  Si142  1  0.752736  0.246728  0.694207  1
  Si  Si143  1  0.717626  0.281671  0.106777  1
  Si  Si144  1  0.718245  0.434953  0.103779  1
  Si  Si145  1  0.715468  0.279302  0.895395  1
  Si  Si146  1  0.717017  0.435898  0.897183  1
  O  O147  1  0.744961  0.490708  0.806257  1
  O  O148  1  0.703379  0.545823  0.337908  1
  O  O149  1  0.843531  0.545552  0.338032  1
  O  O150  1  0.703787  0.546693  0.663152  1
  O  O151  1  0.843557  0.545637  0.663661  1
  Si  Si152  1  0.753498  0.506291  0.695589  1
  O  O153  1  0.898372  0.539880  0.500646  1
  Si  Si154  1  0.753590  0.506056  0.305687  1
  Si  Si155  1  0.909876  0.535937  0.610766  1
  Si  Si156  1  0.910095  0.536043  0.390556  1
