# generated using pymatgen
data_SiO2
_symmetry_space_group_name_H-M   'P 1'
_cell_length_a   16.21908833
_cell_length_b   9.78145438
_cell_length_c   22.93270478
_cell_angle_alpha   90.00000000
_cell_angle_beta   90.00000000
_cell_angle_gamma   90.00000000
_symmetry_Int_Tables_number   1
_chemical_formula_structural   SiO2
_chemical_formula_sum   'Si64 O128'
_cell_volume   3638.18813418
_cell_formula_units_Z   64
loop_
 _symmetry_equiv_pos_site_id
 _symmetry_equiv_pos_as_xyz
  1  'x, y, z'
loop_
 _atom_site_type_symbol
 _atom_site_label
 _atom_site_symmetry_multiplicity
 _atom_site_fract_x
 _atom_site_fract_y
 _atom_site_fract_z
 _atom_site_occupancy
  Si  Si1  1  0.445383  0.128920  0.248740  1
  Si  Si2  1  0.554786  0.370999  0.248722  1
  Si  Si3  1  0.945378  0.121028  0.251293  1
  Si  Si4  1  0.054781  0.378948  0.251300  1
  Si  Si5  1  0.554728  0.370739  0.751293  1
  Si  Si6  1  0.445323  0.128660  0.751318  1
  Si  Si7  1  0.054730  0.378639  0.748766  1
  Si  Si8  1  0.945327  0.120720  0.748761  1
  Si  Si9  1  0.277978  0.047095  0.285494  1
  Si  Si10  1  0.722198  0.452879  0.285472  1
  Si  Si11  1  0.777983  0.202876  0.214526  1
  Si  Si12  1  0.222187  0.297093  0.214554  1
  Si  Si13  1  0.722136  0.452555  0.714546  1
  Si  Si14  1  0.277911  0.046774  0.714584  1
  Si  Si15  1  0.222126  0.296776  0.785527  1
  Si  Si16  1  0.777917  0.202555  0.785492  1
  Si  Si17  1  0.594044  0.033500  0.064988  1
  Si  Si18  1  0.406078  0.466422  0.065019  1
  Si  Si19  1  0.094070  0.216414  0.435041  1
  Si  Si20  1  0.906099  0.283480  0.435040  1
  Si  Si21  1  0.406039  0.466097  0.935056  1
  Si  Si22  1  0.594000  0.033205  0.935021  1
  Si  Si23  1  0.906080  0.283224  0.565015  1
  Si  Si24  1  0.094047  0.216126  0.565015  1
  Si  Si25  1  0.354309  0.208529  0.134124  1
  Si  Si26  1  0.645835  0.291399  0.134093  1
  Si  Si27  1  0.854329  0.041375  0.365916  1
  Si  Si28  1  0.145846  0.458524  0.365926  1
  Si  Si29  1  0.645774  0.291099  0.865918  1
  Si  Si30  1  0.354263  0.208200  0.865949  1
  Si  Si31  1  0.145793  0.458232  0.634143  1
  Si  Si32  1  0.854292  0.041116  0.634126  1
  O  O33  1  0.409411  0.172750  0.188092  1
  O  O34  1  0.590737  0.327129  0.188071  1
  O  O35  1  0.909429  0.077137  0.311943  1
  O  O36  1  0.090743  0.422766  0.311954  1
  O  O37  1  0.590689  0.326900  0.811944  1
  O  O38  1  0.409372  0.172515  0.811971  1
  O  O39  1  0.090682  0.422515  0.688115  1
  O  O40  1  0.909379  0.076893  0.688104  1
  O  O41  1  0.500087  0.999964  0.239870  1
  O  O42  1  0.000065  0.250005  0.260158  1
  O  O43  1  0.500030  0.999702  0.760165  1
  O  O44  1  0.000035  0.249674  0.739905  1
  O  O45  1  0.500086  0.249969  0.269242  1
  O  O46  1  0.000099  0.000006  0.230784  1
  O  O47  1  0.500016  0.249697  0.730794  1
  O  O48  1  0.000019  0.999671  0.769276  1
  O  O49  1  0.370140  0.089202  0.286921  1
  O  O50  1  0.630037  0.410730  0.286897  1
  O  O51  1  0.870138  0.160734  0.213108  1
  O  O52  1  0.130025  0.339210  0.213124  1
  O  O53  1  0.629974  0.410445  0.713114  1
  O  O54  1  0.370070  0.088921  0.713150  1
  O  O55  1  0.129970  0.338921  0.786949  1
  O  O56  1  0.870076  0.160440  0.786931  1
  O  O57  1  0.268199  0.423066  0.242252  1
  O  O58  1  0.731957  0.076936  0.242242  1
  O  O59  1  0.768216  0.326936  0.257753  1
  O  O60  1  0.231962  0.173067  0.257797  1
  O  O61  1  0.731907  0.076590  0.757786  1
  O  O62  1  0.268151  0.422724  0.757816  1
  O  O63  1  0.231891  0.172725  0.742295  1
  O  O64  1  0.768148  0.326589  0.742252  1
  O  O65  1  0.230898  0.002192  0.341161  1
  O  O66  1  0.769277  0.497724  0.341143  1
  O  O67  1  0.730893  0.247734  0.158857  1
  O  O68  1  0.269258  0.252196  0.158889  1
  O  O69  1  0.769231  0.497447  0.658883  1
  O  O70  1  0.230837  0.001911  0.658915  1
  O  O71  1  0.269211  0.251895  0.841191  1
  O  O72  1  0.730831  0.247439  0.841156  1
  O  O73  1  0.500060  0.999985  0.069798  1
  O  O74  1  0.000087  0.249966  0.430247  1
  O  O75  1  0.500020  0.999630  0.930244  1
  O  O76  1  0.000062  0.249658  0.569808  1
  O  O77  1  0.643621  0.417280  0.093749  1
  O  O78  1  0.356513  0.082706  0.093744  1
  O  O79  1  0.143637  0.332688  0.406304  1
  O  O80  1  0.856536  0.167245  0.406271  1
  O  O81  1  0.356460  0.082285  0.906274  1
  O  O82  1  0.643566  0.416912  0.906302  1
  O  O83  1  0.856509  0.166943  0.593744  1
  O  O84  1  0.143608  0.332329  0.593806  1
  O  O85  1  0.608385  0.168086  0.099989  1
  O  O86  1  0.391773  0.331909  0.100075  1
  O  O87  1  0.108387  0.081889  0.399993  1
  O  O88  1  0.891770  0.418052  0.400023  1
  O  O89  1  0.391713  0.331479  0.900075  1
  O  O90  1  0.608306  0.167708  0.899958  1
  O  O91  1  0.891761  0.417742  0.600070  1
  O  O92  1  0.108358  0.081522  0.600012  1
  O  O93  1  0.613925  0.051013  0.999994  1
  O  O94  1  0.386148  0.448629  0.000048  1
  O  O95  1  0.113969  0.198657  0.500023  1
  O  O96  1  0.886187  0.300999  0.500032  1
  Si  Si97  1  0.445384  0.628919  0.248740  1
  Si  Si98  1  0.554789  0.871001  0.248723  1
  Si  Si99  1  0.945381  0.621027  0.251293  1
  Si  Si100  1  0.054779  0.878948  0.251301  1
  Si  Si101  1  0.554727  0.870738  0.751293  1
  Si  Si102  1  0.445324  0.628661  0.751318  1
  Si  Si103  1  0.054726  0.878642  0.748766  1
  Si  Si104  1  0.945328  0.620722  0.748760  1
  Si  Si105  1  0.277975  0.547093  0.285495  1
  Si  Si106  1  0.722194  0.952877  0.285471  1
  Si  Si107  1  0.777979  0.702878  0.214525  1
  Si  Si108  1  0.222189  0.797092  0.214553  1
  Si  Si109  1  0.722137  0.952556  0.714546  1
  Si  Si110  1  0.277911  0.546774  0.714584  1
  Si  Si111  1  0.222130  0.796773  0.785528  1
  Si  Si112  1  0.777914  0.702557  0.785493  1
  Si  Si113  1  0.594044  0.533499  0.064988  1
  Si  Si114  1  0.406078  0.966423  0.065020  1
  Si  Si115  1  0.094070  0.716415  0.435041  1
  Si  Si116  1  0.906099  0.783481  0.435040  1
  Si  Si117  1  0.406039  0.966098  0.935056  1
  Si  Si118  1  0.594000  0.533204  0.935021  1
  Si  Si119  1  0.906080  0.783224  0.565015  1
  Si  Si120  1  0.094047  0.716126  0.565015  1
  Si  Si121  1  0.354308  0.708530  0.134125  1
  Si  Si122  1  0.645837  0.791397  0.134094  1
  Si  Si123  1  0.854328  0.541374  0.365915  1
  Si  Si124  1  0.145844  0.958522  0.365927  1
  Si  Si125  1  0.645776  0.791097  0.865917  1
  Si  Si126  1  0.354261  0.708201  0.865948  1
  Si  Si127  1  0.145793  0.958232  0.634143  1
  Si  Si128  1  0.854293  0.541116  0.634125  1
  O  O129  1  0.409411  0.672749  0.188092  1
  O  O130  1  0.590737  0.827128  0.188071  1
  O  O131  1  0.909429  0.577137  0.311943  1
  O  O132  1  0.090743  0.922765  0.311955  1
  O  O133  1  0.590688  0.826900  0.811944  1
  O  O134  1  0.409372  0.672516  0.811971  1
  O  O135  1  0.090682  0.922515  0.688115  1
  O  O136  1  0.909379  0.576893  0.688104  1
  O  O137  1  0.500087  0.499965  0.239870  1
  O  O138  1  0.000064  0.750005  0.260158  1
  O  O139  1  0.500030  0.499702  0.760165  1
  O  O140  1  0.000035  0.749674  0.739905  1
  O  O141  1  0.500086  0.749969  0.269243  1
  O  O142  1  0.000099  0.500007  0.230784  1
  O  O143  1  0.500016  0.749697  0.730794  1
  O  O144  1  0.000019  0.499671  0.769277  1
  O  O145  1  0.370141  0.589201  0.286921  1
  O  O146  1  0.630037  0.910729  0.286897  1
  O  O147  1  0.870138  0.660734  0.213108  1
  O  O148  1  0.130025  0.839210  0.213124  1
  O  O149  1  0.629974  0.910445  0.713114  1
  O  O150  1  0.370070  0.588922  0.713150  1
  O  O151  1  0.129970  0.838921  0.786949  1
  O  O152  1  0.870076  0.660440  0.786931  1
  O  O153  1  0.268199  0.923066  0.242252  1
  O  O154  1  0.731957  0.576936  0.242242  1
  O  O155  1  0.768216  0.826936  0.257753  1
  O  O156  1  0.231962  0.673067  0.257797  1
  O  O157  1  0.731907  0.576590  0.757786  1
  O  O158  1  0.268151  0.922724  0.757816  1
  O  O159  1  0.231891  0.672725  0.742295  1
  O  O160  1  0.768148  0.826589  0.742252  1
  O  O161  1  0.230899  0.502193  0.341160  1
  O  O162  1  0.769277  0.997723  0.341142  1
  O  O163  1  0.730893  0.747734  0.158857  1
  O  O164  1  0.269258  0.752196  0.158889  1
  O  O165  1  0.769231  0.997448  0.658883  1
  O  O166  1  0.230838  0.501911  0.658915  1
  O  O167  1  0.269211  0.751896  0.841191  1
  O  O168  1  0.730831  0.747439  0.841156  1
  O  O169  1  0.500060  0.499984  0.069798  1
  O  O170  1  0.000087  0.749967  0.430247  1
  O  O171  1  0.500020  0.499630  0.930244  1
  O  O172  1  0.000062  0.749659  0.569808  1
  O  O173  1  0.643622  0.917280  0.093749  1
  O  O174  1  0.356513  0.582706  0.093744  1
  O  O175  1  0.143637  0.832688  0.406304  1
  O  O176  1  0.856537  0.667245  0.406271  1
  O  O177  1  0.356459  0.582285  0.906274  1
  O  O178  1  0.643566  0.916912  0.906302  1
  O  O179  1  0.856509  0.666943  0.593744  1
  O  O180  1  0.143608  0.832329  0.593806  1
  O  O181  1  0.608385  0.668086  0.099989  1
  O  O182  1  0.391773  0.831909  0.100075  1
  O  O183  1  0.108388  0.581889  0.399993  1
  O  O184  1  0.891770  0.918052  0.400023  1
  O  O185  1  0.391713  0.831479  0.900075  1
  O  O186  1  0.608305  0.667708  0.899958  1
  O  O187  1  0.891761  0.917743  0.600070  1
  O  O188  1  0.108358  0.581522  0.600012  1
  O  O189  1  0.613925  0.551013  0.999994  1
  O  O190  1  0.386148  0.948629  0.000049  1
  O  O191  1  0.113969  0.698657  0.500023  1
  O  O192  1  0.886187  0.801000  0.500032  1
