# generated using pymatgen
data_SiO2
_symmetry_space_group_name_H-M   'P 1'
_cell_length_a   8.11619714
_cell_length_b   9.02515124
_cell_length_c   17.10924594
_cell_angle_alpha   90.00000000
_cell_angle_beta   90.00000000
_cell_angle_gamma   90.00000000
_symmetry_Int_Tables_number   1
_chemical_formula_structural   SiO2
_chemical_formula_sum   'Si24 O48'
_cell_volume   1253.25066812
_cell_formula_units_Z   24
loop_
 _symmetry_equiv_pos_site_id
 _symmetry_equiv_pos_as_xyz
  1  'x, y, z'
loop_
 _atom_site_type_symbol
 _atom_site_label
 _atom_site_symmetry_multiplicity
 _atom_site_fract_x
 _atom_site_fract_y
 _atom_site_fract_z
 _atom_site_occupancy
  O  O1  1  0.750056  0.175083  0.000060  1
  O  O2  1  0.250089  0.675098  0.500041  1
  O  O3  1  0.750077  0.824642  0.500048  1
  O  O4  1  0.250099  0.324628  0.000059  1
  O  O5  1  0.537698  0.989095  0.035945  1
  O  O6  1  0.037746  0.489099  0.535929  1
  O  O7  1  0.962410  0.010655  0.535932  1
  O  O8  1  0.462429  0.510649  0.035936  1
  O  O9  1  0.462422  0.489084  0.464164  1
  O  O10  1  0.962375  0.989062  0.964178  1
  O  O11  1  0.037750  0.510618  0.964168  1
  O  O12  1  0.537730  0.010636  0.464162  1
  O  O13  1  0.758412  0.092004  0.138533  1
  O  O14  1  0.258415  0.592033  0.638521  1
  O  O15  1  0.741747  0.907709  0.638527  1
  O  O16  1  0.241738  0.407727  0.138529  1
  O  O17  1  0.241749  0.592011  0.361566  1
  O  O18  1  0.741738  0.092023  0.861578  1
  O  O19  1  0.258407  0.407674  0.861575  1
  O  O20  1  0.758424  0.907713  0.361573  1
  O  O21  1  0.500084  0.249876  0.087967  1
  O  O22  1  0.000087  0.749878  0.587940  1
  O  O23  1  0.500090  0.749858  0.412144  1
  O  O24  1  0.000084  0.249835  0.912171  1
  O  O25  1  0.044137  0.003980  0.106203  1
  O  O26  1  0.544130  0.503995  0.606202  1
  O  O27  1  0.456031  0.995731  0.606202  1
  O  O28  1  0.956001  0.495709  0.106196  1
  O  O29  1  0.956022  0.504007  0.393897  1
  O  O30  1  0.456021  0.004010  0.893902  1
  O  O31  1  0.544111  0.495736  0.893896  1
  O  O32  1  0.044147  0.995734  0.393902  1
  O  O33  1  0.250052  0.903995  0.000028  1
  O  O34  1  0.750084  0.404012  0.500053  1
  O  O35  1  0.250077  0.095737  0.500061  1
  O  O36  1  0.750084  0.595721  0.000027  1
  O  O37  1  0.000081  0.749839  0.042587  1
  O  O38  1  0.500095  0.249861  0.542581  1
  O  O39  1  0.000082  0.249874  0.457514  1
  O  O40  1  0.500079  0.749875  0.957519  1
  O  O41  1  0.000092  0.749869  0.319893  1
  O  O42  1  0.500089  0.249868  0.819887  1
  O  O43  1  0.000088  0.249855  0.180203  1
  O  O44  1  0.500084  0.749862  0.680205  1
  O  O45  1  0.952999  0.999869  0.250054  1
  O  O46  1  0.452956  0.499867  0.750049  1
  O  O47  1  0.547178  0.999856  0.750053  1
  O  O48  1  0.047153  0.499866  0.250046  1
  Si  Si49  1  0.633162  0.127185  0.070026  1
  Si  Si50  1  0.133186  0.627204  0.570005  1
  Si  Si51  1  0.866978  0.872546  0.570010  1
  Si  Si52  1  0.366989  0.372550  0.070022  1
  Si  Si53  1  0.366987  0.627186  0.430080  1
  Si  Si54  1  0.866961  0.127179  0.930099  1
  Si  Si55  1  0.133188  0.372508  0.930096  1
  Si  Si56  1  0.633180  0.872539  0.430083  1
  Si  Si57  1  0.068081  0.909854  0.029206  1
  Si  Si58  1  0.568096  0.409875  0.529205  1
  Si  Si59  1  0.432070  0.089853  0.529205  1
  Si  Si60  1  0.932058  0.589834  0.029199  1
  Si  Si61  1  0.932067  0.409883  0.470893  1
  Si  Si62  1  0.432052  0.909882  0.970895  1
  Si  Si63  1  0.568085  0.589859  0.970890  1
  Si  Si64  1  0.068098  0.089865  0.470897  1
  Si  Si65  1  0.940675  0.913877  0.328749  1
  Si  Si66  1  0.440648  0.413869  0.828744  1
  Si  Si67  1  0.559495  0.085857  0.828746  1
  Si  Si68  1  0.059498  0.585857  0.328742  1
  Si  Si69  1  0.059485  0.413869  0.171352  1
  Si  Si70  1  0.559500  0.913873  0.671354  1
  Si  Si71  1  0.440657  0.585857  0.671352  1
  Si  Si72  1  0.940666  0.085846  0.171354  1
