# generated using pymatgen
data_SiO2
_symmetry_space_group_name_H-M   'P 1'
_cell_length_a   14.92896938
_cell_length_b   14.93920924
_cell_length_c   14.94917451
_cell_angle_alpha   90.00000000
_cell_angle_beta   90.00000000
_cell_angle_gamma   90.00000000
_symmetry_Int_Tables_number   1
_chemical_formula_structural   SiO2
_chemical_formula_sum   'Si48 O96'
_cell_volume   3334.06950385
_cell_formula_units_Z   48
loop_
 _symmetry_equiv_pos_site_id
 _symmetry_equiv_pos_as_xyz
  1  'x, y, z'
loop_
 _atom_site_type_symbol
 _atom_site_label
 _atom_site_symmetry_multiplicity
 _atom_site_fract_x
 _atom_site_fract_y
 _atom_site_fract_z
 _atom_site_occupancy
  O  O1  1  0.125857  0.907502  0.028177  1
  O  O2  1  0.375095  0.407687  0.028135  1
  O  O3  1  0.079428  0.752899  0.017636  1
  O  O4  1  0.420929  0.254576  0.017976  1
  O  O5  1  0.482935  0.921333  0.253271  1
  O  O6  1  0.017515  0.421287  0.253661  1
  O  O7  1  0.101446  0.828399  0.179130  1
  O  O8  1  0.398983  0.329123  0.180040  1
  Si  Si9  1  0.427163  0.373298  0.269504  1
  O  O10  1  0.178805  0.399642  0.329382  1
  O  O11  1  0.152379  0.932832  0.302261  1
  O  O12  1  0.347210  0.433053  0.302721  1
  Si  Si13  1  0.069710  0.836075  0.081200  1
  Si  Si14  1  0.431085  0.336877  0.082247  1
  Si  Si15  1  0.073016  0.873169  0.268149  1
  O  O16  1  0.321002  0.900617  0.331195  1
  O  O17  1  0.374013  0.090541  0.529430  1
  O  O18  1  0.470691  0.873301  0.408860  1
  O  O19  1  0.125789  0.590628  0.529233  1
  O  O20  1  0.026787  0.376146  0.408860  1
  O  O21  1  0.409499  0.027154  0.377164  1
  O  O22  1  0.092323  0.528229  0.376388  1
  O  O23  1  0.253617  0.018248  0.421100  1
  O  O24  1  0.245823  0.517531  0.421534  1
  O  O25  1  0.420730  0.244749  0.516816  1
  O  O26  1  0.079315  0.746943  0.517063  1
  O  O27  1  0.329303  0.179815  0.399730  1
  O  O28  1  0.170647  0.681179  0.402446  1
  O  O29  1  0.432611  0.303014  0.347469  1
  O  O30  1  0.068188  0.804422  0.347261  1
  O  O31  1  0.197554  0.850112  0.435578  1
  O  O32  1  0.302386  0.347529  0.432558  1
  Si  Si33  1  0.337499  0.082015  0.432879  1
  Si  Si34  1  0.163199  0.581375  0.433391  1
  Si  Si35  1  0.430268  0.161506  0.579639  1
  Si  Si36  1  0.421436  0.930262  0.337573  1
  Si  Si37  1  0.069936  0.662577  0.578811  1
  Si  Si38  1  0.080703  0.431600  0.337351  1
  Si  Si39  1  0.372758  0.269684  0.427087  1
  Si  Si40  1  0.127912  0.773897  0.427904  1
  Si  Si41  1  0.228630  0.927371  0.374023  1
  Si  Si42  1  0.269001  0.427413  0.372838  1
  O  O43  1  0.091881  0.972704  0.877073  1
  O  O44  1  0.407696  0.471950  0.875254  1
  O  O45  1  0.029226  0.125779  0.909898  1
  O  O46  1  0.473885  0.623160  0.908661  1
  O  O47  1  0.016899  0.078447  0.754150  1
  O  O48  1  0.482404  0.578296  0.753655  1
  O  O49  1  0.247128  0.982012  0.921468  1
  O  O50  1  0.253224  0.482966  0.921981  1
  O  O51  1  0.179788  0.098596  0.830477  1
  O  O52  1  0.321042  0.600057  0.832058  1
  O  O53  1  0.170208  0.820263  0.901124  1
  O  O54  1  0.399911  0.167865  0.679739  1
  O  O55  1  0.328252  0.320884  0.899754  1
  O  O56  1  0.099449  0.669123  0.679183  1
  O  O57  1  0.303756  0.152035  0.932655  1
  O  O58  1  0.197968  0.651678  0.936013  1
  O  O59  1  0.067619  0.695935  0.848168  1
  O  O60  1  0.348619  0.063912  0.802992  1
  O  O61  1  0.431905  0.197033  0.848369  1
  O  O62  1  0.151593  0.567597  0.804050  1
  Si  Si63  1  0.079034  0.069462  0.838279  1
  Si  Si64  1  0.420298  0.568283  0.837052  1
  Si  Si65  1  0.163848  0.919763  0.931804  1
  Si  Si66  1  0.336201  0.418971  0.931418  1
  Si  Si67  1  0.272602  0.071629  0.872788  1
  Si  Si68  1  0.228501  0.573917  0.875016  1
  Si  Si69  1  0.128051  0.727528  0.927802  1
  Si  Si70  1  0.426351  0.125054  0.772268  1
  Si  Si71  1  0.372527  0.231316  0.927862  1
  Si  Si72  1  0.072051  0.626350  0.770630  1
  O  O73  1  0.973082  0.874990  0.092270  1
  O  O74  1  0.527588  0.375850  0.093567  1
  O  O75  1  0.907152  0.026963  0.124230  1
  O  O76  1  0.592332  0.528243  0.124528  1
  O  O77  1  0.751284  0.019013  0.076049  1
  O  O78  1  0.747451  0.517953  0.078801  1
  O  O79  1  0.982802  0.921178  0.245022  1
  O  O80  1  0.517287  0.421749  0.246229  1
  O  O81  1  0.830052  0.179582  0.099056  1
  O  O82  1  0.598725  0.831443  0.318998  1
  O  O83  1  0.671711  0.680524  0.098837  1
  O  O84  1  0.899924  0.331042  0.320630  1
  O  O85  1  0.820210  0.901657  0.167747  1
  O  O86  1  0.680150  0.400964  0.169635  1
  O  O87  1  0.934573  0.302754  0.151708  1
  O  O88  1  0.651257  0.934386  0.194734  1
  O  O89  1  0.567159  0.803292  0.150512  1
  O  O90  1  0.849308  0.434626  0.196430  1
  O  O91  1  0.696226  0.849282  0.064829  1
  O  O92  1  0.803797  0.348850  0.065372  1
  Si  Si93  1  0.835240  0.079080  0.068299  1
  Si  Si94  1  0.663689  0.582332  0.067803  1
  Si  Si95  1  0.919938  0.931013  0.162642  1
  Si  Si96  1  0.580481  0.432077  0.163974  1
  Si  Si97  1  0.873697  0.272984  0.073538  1
  Si  Si98  1  0.572342  0.874143  0.227377  1
  Si  Si99  1  0.626716  0.769363  0.069938  1
  Si  Si100  1  0.926787  0.373183  0.227003  1
  Si  Si101  1  0.728954  0.930113  0.124217  1
  Si  Si102  1  0.773553  0.426656  0.126474  1
  O  O103  1  0.592295  0.970885  0.626053  1
  O  O104  1  0.908701  0.473186  0.623603  1
  O  O105  1  0.622686  0.907217  0.472607  1
  O  O106  1  0.527127  0.122882  0.592388  1
  O  O107  1  0.873692  0.409738  0.471311  1
  O  O108  1  0.972814  0.624715  0.591670  1
  O  O109  1  0.578622  0.753411  0.481669  1
  O  O110  1  0.920605  0.253644  0.483121  1
  O  O111  1  0.744927  0.982032  0.578627  1
  O  O112  1  0.753206  0.481952  0.579427  1
  O  O113  1  0.671098  0.819518  0.600015  1
  O  O114  1  0.832038  0.320227  0.599678  1
  O  O115  1  0.802476  0.151482  0.568008  1
  O  O116  1  0.696046  0.651340  0.567745  1
  O  O117  1  0.567472  0.696256  0.651658  1
  O  O118  1  0.935866  0.196631  0.651165  1
  Si  Si119  1  0.566840  0.836368  0.418400  1
  Si  Si120  1  0.580685  0.067754  0.664450  1
  Si  Si121  1  0.929612  0.337938  0.421365  1
  Si  Si122  1  0.920185  0.569134  0.663181  1
  Si  Si123  1  0.662665  0.917638  0.568837  1
  Si  Si124  1  0.837351  0.419793  0.567607  1
  Si  Si125  1  0.768232  0.071966  0.627317  1
  Si  Si126  1  0.727579  0.571627  0.628299  1
  Si  Si127  1  0.626753  0.730050  0.571916  1
  Si  Si128  1  0.874509  0.227521  0.573774  1
  O  O129  1  0.875972  0.091680  0.972260  1
  O  O130  1  0.626983  0.591208  0.971710  1
  O  O131  1  0.517281  0.078068  0.747605  1
  O  O132  1  0.982453  0.578690  0.746252  1
  O  O133  1  0.921919  0.246652  0.982825  1
  O  O134  1  0.578090  0.747125  0.981483  1
  O  O135  1  0.678683  0.100041  0.671615  1
  O  O136  1  0.820281  0.598718  0.670348  1
  O  O137  1  0.902024  0.169902  0.819854  1
  O  O138  1  0.600322  0.668184  0.820713  1
  O  O139  1  0.847188  0.067170  0.696333  1
  O  O140  1  0.651250  0.563813  0.697804  1
  Si  Si141  1  0.933062  0.162993  0.919611  1
  Si  Si142  1  0.570977  0.662887  0.922081  1
  Si  Si143  1  0.927630  0.127076  0.727275  1
  Si  Si144  1  0.573285  0.624848  0.728235  1
