# generated using pymatgen
data_SiO2
_symmetry_space_group_name_H-M   'P 1'
_cell_length_a   6.98625762
_cell_length_b   12.63072671
_cell_length_c   13.25199651
_cell_angle_alpha   90.00000000
_cell_angle_beta   90.00000000
_cell_angle_gamma   90.00000000
_symmetry_Int_Tables_number   1
_chemical_formula_structural   SiO2
_chemical_formula_sum   'Si20 O40'
_cell_volume   1169.37619232
_cell_formula_units_Z   20
loop_
 _symmetry_equiv_pos_site_id
 _symmetry_equiv_pos_as_xyz
  1  'x, y, z'
loop_
 _atom_site_type_symbol
 _atom_site_label
 _atom_site_symmetry_multiplicity
 _atom_site_fract_x
 _atom_site_fract_y
 _atom_site_fract_z
 _atom_site_occupancy
  O  O1  1  0.829897  0.522776  0.579194  1
  O  O2  1  0.170835  0.474875  0.082095  1
  O  O3  1  0.172335  0.021673  0.919873  1
  O  O4  1  0.841575  0.976185  0.424876  1
  O  O5  1  0.167704  0.475591  0.418969  1
  O  O6  1  0.825513  0.524501  0.917787  1
  O  O7  1  0.834222  0.977904  0.080756  1
  O  O8  1  0.165067  0.022518  0.576502  1
  O  O9  1  0.181899  0.528188  0.597974  1
  O  O10  1  0.816437  0.471885  0.098171  1
  O  O11  1  0.820855  0.031076  0.901996  1
  O  O12  1  0.196884  0.965082  0.397432  1
  O  O13  1  0.809148  0.469695  0.397795  1
  O  O14  1  0.180349  0.529175  0.902013  1
  O  O15  1  0.191798  0.966118  0.101238  1
  O  O16  1  0.809604  0.033375  0.604640  1
  O  O17  1  0.976133  0.695712  0.583887  1
  O  O18  1  0.021263  0.306014  0.081105  1
  O  O19  1  0.025691  0.197371  0.912079  1
  O  O20  1  0.982521  0.804428  0.415963  1
  O  O21  1  0.019821  0.305993  0.419958  1
  O  O22  1  0.970921  0.694422  0.914310  1
  O  O23  1  0.973495  0.806073  0.082098  1
  O  O24  1  0.020102  0.196345  0.587229  1
  O  O25  1  0.970299  0.585484  0.748961  1
  O  O26  1  0.024740  0.410638  0.250447  1
  O  O27  1  0.034120  0.084933  0.749571  1
  O  O28  1  0.973817  0.914091  0.250290  1
  O  O29  1  0.261244  0.153367  0.039118  1
  O  O30  1  0.734093  0.847074  0.543102  1
  O  O31  1  0.735071  0.656909  0.460480  1
  O  O32  1  0.271993  0.343762  0.959154  1
  O  O33  1  0.727622  0.845218  0.958977  1
  O  O34  1  0.262430  0.152542  0.460125  1
  O  O35  1  0.270965  0.342084  0.540830  1
  O  O36  1  0.726537  0.657131  0.039724  1
  O  O37  1  0.503386  0.002474  0.000684  1
  O  O38  1  0.504906  0.002292  0.499493  1
  O  O39  1  0.498244  0.500983  0.499729  1
  O  O40  1  0.497357  0.502065  0.001396  1
  Si  Si41  1  0.994252  0.582857  0.633582  1
  Si  Si42  1  0.002422  0.416605  0.134483  1
  Si  Si43  1  0.010790  0.084755  0.866134  1
  Si  Si44  1  0.005862  0.915212  0.366600  1
  Si  Si45  1  0.997715  0.418197  0.366636  1
  Si  Si46  1  0.993247  0.582345  0.864328  1
  Si  Si47  1  0.001019  0.918496  0.133721  1
  Si  Si48  1  0.000128  0.084048  0.633584  1
  Si  Si49  1  0.290128  0.030555  0.018979  1
  Si  Si50  1  0.712867  0.967549  0.522790  1
  Si  Si51  1  0.709712  0.533352  0.480497  1
  Si  Si52  1  0.290241  0.463587  0.983260  1
  Si  Si53  1  0.711908  0.964891  0.983533  1
  Si  Si54  1  0.293688  0.030744  0.479369  1
  Si  Si55  1  0.289911  0.461846  0.516253  1
  Si  Si56  1  0.707085  0.537227  0.016685  1
  Si  Si57  1  0.144772  0.251007  0.996448  1
  Si  Si58  1  0.856123  0.755053  0.499876  1
  Si  Si59  1  0.847213  0.750427  0.998241  1
  Si  Si60  1  0.144117  0.248748  0.504075  1
