# generated using pymatgen
data_SiO2
_symmetry_space_group_name_H-M   'P 1'
_cell_length_a   8.30413311
_cell_length_b   13.78772211
_cell_length_c   15.67993831
_cell_angle_alpha   90.00000000
_cell_angle_beta   119.27000000
_cell_angle_gamma   90.00000000
_symmetry_Int_Tables_number   1
_chemical_formula_structural   SiO2
_chemical_formula_sum   'Si32 O64'
_cell_volume   1566.06465493
_cell_formula_units_Z   32
loop_
 _symmetry_equiv_pos_site_id
 _symmetry_equiv_pos_as_xyz
  1  'x, y, z'
loop_
 _atom_site_type_symbol
 _atom_site_label
 _atom_site_symmetry_multiplicity
 _atom_site_fract_x
 _atom_site_fract_y
 _atom_site_fract_z
 _atom_site_occupancy
  Si  Si1  1  0.149386  0.156101  0.250244  1
  Si  Si2  1  0.783297  0.289294  0.396086  1
  Si  Si3  1  0.308702  0.441590  0.208513  1
  Si  Si4  1  0.410612  0.141000  0.073696  1
  Si  Si5  1  0.139394  0.273288  0.081239  1
  Si  Si6  1  0.405647  0.306540  0.383000  1
  Si  Si7  1  0.778936  0.144096  0.249392  1
  Si  Si8  1  0.702526  0.489205  0.320479  1
  O  O9  1  0.807723  0.395127  0.372017  1
  O  O10  1  0.610907  0.288329  0.410814  1
  O  O11  1  0.957657  0.244005  0.482344  1
  O  O12  1  0.618982  0.145886  0.144787  1
  O  O13  1  0.743959  0.224964  0.306901  1
  O  O14  1  0.298358  0.211259  0.339757  1
  O  O15  1  0.206964  0.056125  0.226295  1
  O  O16  1  0.189203  0.379172  0.116994  1
  O  O17  1  0.333221  0.051423  0.105998  1
  O  O18  1  0.385238  0.352581  0.468173  1
  O  O19  1  0.311484  0.229362  0.084794  1
  O  O20  1  0.327406  0.382836  0.298714  1
  O  O21  1  0.968703  0.153851  0.255193  1
  O  O22  1  0.774881  0.043592  0.293326  1
  O  O23  1  0.511709  0.458828  0.235773  1
  O  O24  1  0.111516  0.218976  0.160298  1
  Si  Si25  1  0.147588  0.340836  0.748152  1
  Si  Si26  1  0.784332  0.207150  0.896038  1
  Si  Si27  1  0.308848  0.056012  0.707767  1
  Si  Si28  1  0.412182  0.358797  0.573484  1
  Si  Si29  1  0.133115  0.223392  0.580577  1
  Si  Si30  1  0.405907  0.191474  0.881567  1
  Si  Si31  1  0.779660  0.353451  0.750165  1
  O  O32  1  0.103593  0.276582  0.658608  1
  O  O33  1  0.807503  0.101396  0.871293  1
  O  O34  1  0.611885  0.208920  0.910609  1
  O  O35  1  0.961760  0.250483  0.982972  1
  O  O36  1  0.618850  0.350672  0.645674  1
  O  O37  1  0.746239  0.271943  0.807495  1
  O  O38  1  0.298832  0.286530  0.837473  1
  O  O39  1  0.205626  0.440272  0.723151  1
  O  O40  1  0.190406  0.118727  0.616455  1
  O  O41  1  0.336752  0.448358  0.605108  1
  O  O42  1  0.383030  0.146658  0.967081  1
  O  O43  1  0.303020  0.272478  0.583161  1
  O  O44  1  0.328070  0.114679  0.797972  1
  O  O45  1  0.969892  0.345503  0.756071  1
  O  O46  1  0.773853  0.453546  0.794176  1
  O  O47  1  0.511593  0.038192  0.734987  1
  Si  Si48  1  0.701924  0.007496  0.819789  1
  Si  Si49  1  0.854111  0.656999  0.251784  1
  Si  Si50  1  0.218717  0.789446  0.104486  1
  Si  Si51  1  0.693247  0.941428  0.292286  1
  Si  Si52  1  0.591323  0.638798  0.427943  1
  Si  Si53  1  0.869264  0.774233  0.419899  1
  Si  Si54  1  0.597026  0.806402  0.118133  1
  Si  Si55  1  0.223554  0.644566  0.251388  1
  Si  Si56  1  0.299274  0.989065  0.181197  1
  O  O57  1  0.194395  0.895307  0.128599  1
  O  O58  1  0.391541  0.788384  0.090084  1
  O  O59  1  0.044677  0.744052  0.018114  1
  O  O60  1  0.384556  0.647190  0.355870  1
  O  O61  1  0.257663  0.725538  0.193769  1
  O  O62  1  0.704418  0.711418  0.162022  1
  O  O63  1  0.795523  0.557555  0.276572  1
  O  O64  1  0.811727  0.878821  0.383735  1
  O  O65  1  0.666323  0.549404  0.395765  1
  O  O66  1  0.617674  0.852201  0.032875  1
  O  O67  1  0.700270  0.725248  0.418356  1
  O  O68  1  0.674500  0.882871  0.202105  1
  O  O69  1  0.033212  0.652770  0.245239  1
  O  O70  1  0.228486  0.544078  0.207645  1
  O  O71  1  0.490558  0.958794  0.265208  1
  O  O72  1  0.896945  0.721004  0.341301  1
  Si  Si73  1  0.854934  0.839841  0.751963  1
  Si  Si74  1  0.219283  0.708277  0.604197  1
  Si  Si75  1  0.693001  0.555897  0.792802  1
  Si  Si76  1  0.590566  0.858482  0.927485  1
  Si  Si77  1  0.869112  0.723179  0.920009  1
  Si  Si78  1  0.597987  0.690453  0.618610  1
  Si  Si79  1  0.223329  0.853388  0.750694  1
  Si  Si80  1  0.299590  0.508618  0.679924  1
  O  O81  1  0.194347  0.602504  0.628067  1
  O  O82  1  0.392571  0.708994  0.590281  1
  O  O83  1  0.045815  0.753773  0.517644  1
  O  O84  1  0.383870  0.850583  0.855272  1
  O  O85  1  0.257820  0.772334  0.693295  1
  O  O86  1  0.705458  0.785373  0.662295  1
  O  O87  1  0.795427  0.939159  0.776278  1
  O  O88  1  0.811620  0.618515  0.884177  1
  O  O89  1  0.665653  0.947757  0.895248  1
  O  O90  1  0.618648  0.644674  0.533381  1
  O  O91  1  0.699385  0.772127  0.917669  1
  O  O92  1  0.675327  0.614161  0.702712  1
  O  O93  1  0.033429  0.844634  0.744931  1
  O  O94  1  0.227707  0.953845  0.706867  1
  O  O95  1  0.489792  0.538952  0.765057  1
  O  O96  1  0.898059  0.776040  0.841644  1
