# generated using pymatgen
data_SiO2
_symmetry_space_group_name_H-M   'P 1'
_cell_length_a   5.08855878
_cell_length_b   7.41913368
_cell_length_c   7.90293296
_cell_angle_alpha   90.00000000
_cell_angle_beta   90.00000000
_cell_angle_gamma   90.00000000
_symmetry_Int_Tables_number   1
_chemical_formula_structural   SiO2
_chemical_formula_sum   'Si6 O12'
_cell_volume   298.357040305
_cell_formula_units_Z   6
loop_
 _symmetry_equiv_pos_site_id
 _symmetry_equiv_pos_as_xyz
  1  'x, y, z'
loop_
 _atom_site_type_symbol
 _atom_site_label
 _atom_site_symmetry_multiplicity
 _atom_site_fract_x
 _atom_site_fract_y
 _atom_site_fract_z
 _atom_site_occupancy
  O  O1  1  0.005884  0.246091  0.000407  1
  O  O2  1  0.505884  0.246091  0.998883  1
  O  O3  1  0.005884  0.752928  0.000407  1
  O  O4  1  0.505884  0.752928  0.998883  1
  O  O5  1  0.256841  0.999509  0.153249  1
  O  O6  1  0.756841  0.999510  0.846041  1
  O  O7  1  0.257636  0.329339  0.271590  1
  O  O8  1  0.257636  0.669680  0.271590  1
  O  O9  1  0.757636  0.669680  0.727701  1
  O  O10  1  0.757636  0.329339  0.727701  1
  O  O11  1  0.466050  0.499510  0.519101  1
  O  O12  1  0.966050  0.499510  0.480189  1
  Si  Si13  1  0.256695  0.206869  0.109952  1
  Si  Si14  1  0.256695  0.792150  0.109952  1
  Si  Si15  1  0.756695  0.792150  0.889338  1
  Si  Si16  1  0.756695  0.206869  0.889339  1
  Si  Si17  1  0.237048  0.499510  0.388009  1
  Si  Si18  1  0.737048  0.499510  0.611281  1
