# generated using pymatgen
data_SiO2
_symmetry_space_group_name_H-M   'P 1'
_cell_length_a   8.53069070
_cell_length_b   6.96337406
_cell_length_c   15.38684673
_cell_angle_alpha   90.00000000
_cell_angle_beta   96.99200000
_cell_angle_gamma   90.00000000
_symmetry_Int_Tables_number   1
_chemical_formula_structural   SiO2
_chemical_formula_sum   'Si16 O32'
_cell_volume   907.21808687
_cell_formula_units_Z   16
loop_
 _symmetry_equiv_pos_site_id
 _symmetry_equiv_pos_as_xyz
  1  'x, y, z'
loop_
 _atom_site_type_symbol
 _atom_site_label
 _atom_site_symmetry_multiplicity
 _atom_site_fract_x
 _atom_site_fract_y
 _atom_site_fract_z
 _atom_site_occupancy
  O  O1  1  0.730448  0.307379  0.202768  1
  O  O2  1  0.269470  0.307381  0.297133  1
  O  O3  1  0.269472  0.692206  0.797133  1
  O  O4  1  0.730451  0.692207  0.702768  1
  O  O5  1  0.759800  0.099204  0.338907  1
  O  O6  1  0.240115  0.099202  0.160996  1
  O  O7  1  0.240119  0.900383  0.660995  1
  O  O8  1  0.759803  0.900384  0.838906  1
  O  O9  1  0.761751  0.952624  0.183008  1
  O  O10  1  0.238165  0.952624  0.316894  1
  O  O11  1  0.238168  0.046962  0.816892  1
  O  O12  1  0.761755  0.046963  0.683007  1
  O  O13  1  0.999962  0.151311  0.249951  1
  O  O14  1  0.999969  0.848277  0.749951  1
  O  O15  1  0.695085  0.883419  0.010864  1
  O  O16  1  0.304835  0.883418  0.489037  1
  O  O17  1  0.304834  0.116169  0.989037  1
  O  O18  1  0.695085  0.116169  0.510864  1
  O  O19  1  0.516032  0.054164  0.891330  1
  O  O20  1  0.483887  0.054163  0.608571  1
  O  O21  1  0.483886  0.945422  0.108571  1
  O  O22  1  0.516032  0.945424  0.391331  1
  O  O23  1  0.536041  0.696475  0.888955  1
  O  O24  1  0.463880  0.696473  0.610946  1
  O  O25  1  0.463877  0.303113  0.110946  1
  O  O26  1  0.536039  0.303114  0.388955  1
  O  O27  1  0.633650  0.371774  0.623742  1
  O  O28  1  0.366271  0.371774  0.876157  1
  O  O29  1  0.366269  0.627813  0.376159  1
  O  O30  1  0.633647  0.627812  0.123743  1
  O  O31  1  0.499958  0.489820  0.249951  1
  O  O32  1  0.499960  0.509767  0.749950  1
  Si  Si33  1  0.817655  0.125395  0.245628  1
  Si  Si34  1  0.182253  0.125395  0.254272  1
  Si  Si35  1  0.182255  0.874190  0.754272  1
  Si  Si36  1  0.817656  0.874193  0.745628  1
  Si  Si37  1  0.638417  0.884537  0.908472  1
  Si  Si38  1  0.361506  0.884536  0.591427  1
  Si  Si39  1  0.361502  0.115050  0.091423  1
  Si  Si40  1  0.638413  0.115051  0.408470  1
  Si  Si41  1  0.651240  0.150108  0.607477  1
  Si  Si42  1  0.348684  0.150111  0.892431  1
  Si  Si43  1  0.348680  0.849477  0.392428  1
  Si  Si44  1  0.651237  0.849479  0.107475  1
  Si  Si45  1  0.414854  0.437009  0.332064  1
  Si  Si46  1  0.585061  0.437012  0.167837  1
  Si  Si47  1  0.585065  0.562577  0.667838  1
  Si  Si48  1  0.414859  0.562578  0.832064  1
