# generated using pymatgen
data_SiO2
_symmetry_space_group_name_H-M   'P 1'
_cell_length_a   19.86382791
_cell_length_b   19.80640796
_cell_length_c   19.84885801
_cell_angle_alpha   90.00000000
_cell_angle_beta   90.00000000
_cell_angle_gamma   90.00000000
_symmetry_Int_Tables_number   1
_chemical_formula_structural   SiO2
_chemical_formula_sum   'Si96 O192'
_cell_volume   7809.15762534
_cell_formula_units_Z   96
loop_
 _symmetry_equiv_pos_site_id
 _symmetry_equiv_pos_as_xyz
  1  'x, y, z'
loop_
 _atom_site_type_symbol
 _atom_site_label
 _atom_site_symmetry_multiplicity
 _atom_site_fract_x
 _atom_site_fract_y
 _atom_site_fract_z
 _atom_site_occupancy
  Si  Si1  1  0.367133  0.428049  0.068203  1
  Si  Si2  1  0.569597  0.366142  0.071745  1
  Si  Si3  1  0.928216  0.067517  0.133609  1
  Si  Si4  1  0.465179  0.032711  0.227799  1
  Si  Si5  1  0.228678  0.463381  0.032168  1
  Si  Si6  1  0.534096  0.229567  0.038199  1
  Si  Si7  1  0.962311  0.034271  0.269904  1
  Si  Si8  1  0.484059  0.453421  0.159340  1
  Si  Si9  1  0.660792  0.483075  0.044645  1
  Si  Si10  1  0.955000  0.159852  0.017121  1
  Si  Si11  1  0.503724  0.101497  0.106991  1
  Si  Si12  1  0.101231  0.394114  0.003199  1
  Si  Si13  1  0.394465  0.001774  0.100712  1
  O  O14  1  0.377751  0.488365  0.019083  1
  O  O15  1  0.517485  0.376780  0.012727  1
  O  O16  1  0.987471  0.017550  0.121031  1
  O  O17  1  0.411606  0.441599  0.131633  1
  O  O18  1  0.632434  0.410663  0.056350  1
  O  O19  1  0.942157  0.131733  0.089078  1
  O  O20  1  0.396206  0.366582  0.027576  1
  O  O21  1  0.531148  0.395373  0.134140  1
  O  O22  1  0.865528  0.028745  0.103311  1
  O  O23  1  0.429922  0.071415  0.288580  1
  O  O24  1  0.288199  0.428982  0.071286  1
  O  O25  1  0.574069  0.288023  0.071751  1
  O  O26  1  0.928055  0.073358  0.211676  1
  O  O27  1  0.411788  0.000697  0.177987  1
  O  O28  1  0.178354  0.410859  0.000881  1
  O  O29  1  0.564433  0.079260  0.061477  1
  O  O30  1  0.502239  0.179063  0.090521  1
  O  O31  1  0.910675  0.002899  0.320810  1
  O  O32  1  0.506793  0.080227  0.181681  1
  O  O33  1  0.079781  0.319438  0.005705  1
  O  O34  1  0.004001  0.079806  0.319337  1
  O  O35  1  0.318765  0.003474  0.078563  1
  O  O36  1  0.495895  0.475856  0.233096  1
  O  O37  1  0.977658  0.234460  0.004667  1
  O  O38  1  0.994658  0.475962  0.266302  1
  O  O39  1  0.734898  0.493117  0.023376  1
  O  O40  1  0.439807  0.063301  0.079971  1
  O  O41  1  0.078786  0.440007  0.063623  1
  Si  Si42  1  0.069006  0.366028  0.426652  1
  Si  Si43  1  0.569029  0.133893  0.573013  1
  Si  Si44  1  0.429038  0.070276  0.368778  1
  Si  Si45  1  0.927277  0.430168  0.634106  1
  Si  Si46  1  0.366984  0.071830  0.569295  1
  Si  Si47  1  0.866785  0.427417  0.432479  1
  Si  Si48  1  0.033160  0.230566  0.463364  1
  Si  Si49  1  0.533757  0.270254  0.538496  1
  Si  Si50  1  0.227446  0.037151  0.531096  1
  Si  Si51  1  0.727299  0.461437  0.467690  1
  Si  Si52  1  0.159808  0.483554  0.455971  1
  Si  Si53  1  0.659280  0.016151  0.544987  1
  Si  Si54  1  0.453947  0.158958  0.481399  1
  Si  Si55  1  0.954728  0.339402  0.517631  1
  Si  Si56  1  0.483684  0.046264  0.660886  1
  Si  Si57  1  0.982930  0.453586  0.340092  1
  Si  Si58  1  0.103264  0.104712  0.503975  1
  Si  Si59  1  0.603017  0.394856  0.496792  1
  Si  Si60  1  0.895397  0.005531  0.398170  1
  Si  Si61  1  0.395940  0.497856  0.601726  1
  Si  Si62  1  0.504388  0.398106  0.605994  1
  Si  Si63  1  0.002829  0.101535  0.395217  1
  O  O64  1  0.017276  0.376151  0.485809  1
  O  O65  1  0.517079  0.123097  0.513833  1
  O  O66  1  0.487958  0.019473  0.379093  1
  O  O67  1  0.985971  0.482526  0.624425  1
  O  O68  1  0.377082  0.011373  0.520210  1
  O  O69  1  0.878163  0.486732  0.482665  1
  O  O70  1  0.131970  0.410616  0.442151  1
  O  O71  1  0.631897  0.089108  0.557764  1
  O  O72  1  0.443778  0.134988  0.408874  1
  O  O73  1  0.943736  0.367243  0.590113  1
  O  O74  1  0.411221  0.058334  0.632953  1
  O  O75  1  0.910721  0.441855  0.368640  1
  O  O76  1  0.030233  0.395408  0.364619  1
  O  O77  1  0.530633  0.104490  0.635411  1
  O  O78  1  0.366238  0.031635  0.399523  1
  O  O79  1  0.865350  0.468287  0.603481  1
  O  O80  1  0.395962  0.133124  0.528343  1
  O  O81  1  0.896274  0.364837  0.471134  1
  O  O82  1  0.073396  0.288032  0.427907  1
  O  O83  1  0.573699  0.211998  0.572470  1
  O  O84  1  0.287700  0.070920  0.571439  1
  O  O85  1  0.787751  0.428069  0.428750  1
  O  O86  1  0.001614  0.179282  0.410940  1
  O  O87  1  0.502217  0.320960  0.590498  1
  O  O88  1  0.179533  0.090464  0.499677  1
  O  O89  1  0.679479  0.408730  0.499569  1
  O  O90  1  0.080154  0.180708  0.504674  1
  O  O91  1  0.579648  0.319144  0.496103  1
  O  O92  1  0.819967  0.004720  0.421025  1
  O  O93  1  0.319935  0.496081  0.579419  1
  O  O94  1  0.976898  0.265506  0.505486  1
  O  O95  1  0.477370  0.233235  0.496709  1
  O  O96  1  0.734104  0.003355  0.522728  1
  O  O97  1  0.234131  0.495089  0.477184  1
  O  O98  1  0.063833  0.078884  0.440210  1
  O  O99  1  0.565138  0.420492  0.561416  1
  O  O100  1  0.440782  0.436492  0.579707  1
  O  O101  1  0.938745  0.065872  0.421971  1
  O  O102  1  0.080106  0.060593  0.565142  1
  O  O103  1  0.579579  0.440131  0.436356  1
  Si  Si104  1  0.868131  0.073411  0.929446  1
  Si  Si105  1  0.070365  0.132656  0.927859  1
  Si  Si106  1  0.427305  0.428802  0.868089  1
  Si  Si107  1  0.961453  0.467694  0.769597  1
  Si  Si108  1  0.729579  0.036698  0.968090  1
  Si  Si109  1  0.033204  0.273698  0.962795  1
  Si  Si110  1  0.463628  0.467691  0.729679  1
  Si  Si111  1  0.980351  0.046569  0.841297  1
  Si  Si112  1  0.158079  0.019007  0.952535  1
  Si  Si113  1  0.454278  0.340673  0.980686  1
  Si  Si114  1  0.001954  0.396869  0.894599  1
  Si  Si115  1  0.602623  0.105082  0.997521  1
  Si  Si116  1  0.891724  0.496003  0.898568  1
  O  O117  1  0.877147  0.014024  0.981733  1
  O  O118  1  0.018462  0.123196  0.987317  1
  O  O119  1  0.485801  0.481931  0.877296  1
  O  O120  1  0.908274  0.057995  0.865587  1
  O  O121  1  0.133946  0.091579  0.942269  1
  O  O122  1  0.443930  0.364985  0.908261  1
  O  O123  1  0.898279  0.135096  0.968640  1
  O  O124  1  0.029487  0.103263  0.866736  1
  O  O125  1  0.365191  0.466993  0.898904  1
  O  O126  1  0.927036  0.426779  0.712009  1
  O  O127  1  0.788819  0.071882  0.928572  1
  O  O128  1  0.072475  0.212423  0.928824  1
  O  O129  1  0.428494  0.428061  0.788809  1
  O  O130  1  0.908447  0.498379  0.821053  1
  O  O131  1  0.000092  0.320470  0.909510  1
  O  O132  1  0.002990  0.420540  0.819054  1
  O  O133  1  0.580273  0.180556  0.996503  1
  O  O134  1  0.504976  0.420639  0.681258  1
  O  O135  1  0.817237  0.492397  0.919875  1
  O  O136  1  0.995222  0.022996  0.767063  1
  O  O137  1  0.477801  0.266421  0.996167  1
  O  O138  1  0.495349  0.024907  0.735021  1
  O  O139  1  0.232327  0.003956  0.976145  1
  O  O140  1  0.937592  0.435189  0.920436  1
  O  O141  1  0.579979  0.060769  0.936754  1
  O  O142  1  0.062772  0.419553  0.939160  1
  O  O143  1  0.411529  0.499435  0.679226  1
  O  O144  1  0.679433  0.089051  0.999803  1
  Si  Si145  1  0.930589  0.866118  0.072018  1
  Si  Si146  1  0.573935  0.568816  0.132660  1
  Si  Si147  1  0.133482  0.927243  0.067893  1
  Si  Si148  1  0.967490  0.730750  0.036673  1
  Si  Si149  1  0.537518  0.532707  0.267820  1
  Si  Si150  1  0.036893  0.532368  0.231558  1
  Si  Si151  1  0.269412  0.962038  0.032478  1
  Si  Si152  1  0.839861  0.982502  0.044410  1
  Si  Si153  1  0.545956  0.660202  0.016138  1
  Si  Si154  1  0.016344  0.954955  0.158171  1
  Si  Si155  1  0.397810  0.894826  0.003626  1
  Si  Si156  1  0.104684  0.504456  0.102091  1
  Si  Si157  1  0.997829  0.601690  0.105385  1
  O  O158  1  0.982994  0.876143  0.013489  1
  O  O159  1  0.515195  0.516521  0.122695  1
  O  O160  1  0.122560  0.986580  0.015965  1
  O  O161  1  0.867679  0.909933  0.055621  1
  O  O162  1  0.557908  0.631771  0.088345  1
  O  O163  1  0.088994  0.942219  0.130916  1
  O  O164  1  0.968751  0.896637  0.133947  1
  O  O165  1  0.636137  0.530252  0.103045  1
  O  O166  1  0.104114  0.864819  0.029410  1
  O  O167  1  0.926910  0.788133  0.071754  1
  O  O168  1  0.572845  0.573179  0.210522  1
  O  O169  1  0.072221  0.572920  0.288811  1
  O  O170  1  0.211397  0.927801  0.072409  1
  O  O171  1  0.998895  0.679507  0.089458  1
  O  O172  1  0.589459  0.501763  0.319961  1
  O  O173  1  0.088997  0.501429  0.179618  1
  O  O174  1  0.320433  0.910149  0.001235  1
  O  O175  1  0.420524  0.818626  0.003561  1
  O  O176  1  0.496120  0.578981  0.318248  1
  O  O177  1  0.180408  0.504618  0.079483  1
  O  O178  1  0.996087  0.579200  0.181291  1
  O  O179  1  0.523749  0.734129  0.004162  1
  O  O180  1  0.506087  0.977450  0.265493  1
  O  O181  1  0.765774  0.994516  0.023198  1
  O  O182  1  0.003559  0.978131  0.232610  1
  O  O183  1  0.937027  0.578933  0.060487  1
  O  O184  1  0.061717  0.565391  0.078799  1
  O  O185  1  0.421288  0.937918  0.064356  1
  Si  Si186  1  0.633254  0.927866  0.432203  1
  Si  Si187  1  0.133899  0.570910  0.568656  1
  Si  Si188  1  0.932052  0.633193  0.572238  1
  Si  Si189  1  0.430401  0.866616  0.426963  1
  Si  Si190  1  0.572589  0.930661  0.633314  1
  Si  Si191  1  0.072605  0.569215  0.366669  1
  Si  Si192  1  0.772623  0.961764  0.467417  1
  Si  Si193  1  0.269564  0.537028  0.532974  1
  Si  Si194  1  0.966826  0.772165  0.537566  1
  Si  Si195  1  0.467399  0.730901  0.462169  1
  Si  Si196  1  0.515920  0.957218  0.340383  1
  Si  Si197  1  0.017028  0.545674  0.660993  1
  Si  Si198  1  0.840658  0.515765  0.545142  1
  Si  Si199  1  0.339207  0.983331  0.457236  1
  Si  Si200  1  0.545245  0.839825  0.517313  1
  Si  Si201  1  0.044166  0.659300  0.483734  1
  Si  Si202  1  0.497535  0.601406  0.394246  1
  Si  Si203  1  0.995228  0.898289  0.605975  1
  Si  Si204  1  0.896730  0.895325  0.496728  1
  Si  Si205  1  0.398864  0.604701  0.504338  1
  Si  Si206  1  0.104340  0.995926  0.603011  1
  Si  Si207  1  0.604765  0.504606  0.397599  1
  O  O208  1  0.621872  0.987173  0.482421  1
  O  O209  1  0.122301  0.511619  0.518715  1
  O  O210  1  0.982098  0.621466  0.513056  1
  O  O211  1  0.482484  0.876481  0.485814  1
  O  O212  1  0.514251  0.983123  0.623694  1
  O  O213  1  0.014161  0.516644  0.376654  1
  O  O214  1  0.588694  0.942704  0.368546  1
  O  O215  1  0.089605  0.556634  0.632769  1
  O  O216  1  0.868363  0.588664  0.558089  1
  O  O217  1  0.367160  0.910436  0.443372  1
  O  O218  1  0.556277  0.867729  0.589780  1
  O  O219  1  0.056367  0.632253  0.410766  1
  O  O220  1  0.603648  0.865327  0.470786  1
  O  O221  1  0.103106  0.633561  0.530166  1
  O  O222  1  0.970619  0.604039  0.634929  1
  O  O223  1  0.468196  0.898322  0.365097  1
  O  O224  1  0.634500  0.968480  0.603131  1
  O  O225  1  0.134738  0.531433  0.397566  1
  O  O226  1  0.712242  0.928605  0.428248  1
  O  O227  1  0.211888  0.571664  0.572973  1
  O  O228  1  0.928032  0.712291  0.571072  1
  O  O229  1  0.427016  0.788519  0.427001  1
  O  O230  1  0.820251  0.908922  0.499262  1
  O  O231  1  0.321319  0.589058  0.501814  1
  O  O232  1  0.997907  0.821542  0.590044  1
  O  O233  1  0.498682  0.679283  0.409728  1
  O  O234  1  0.920573  0.819991  0.495569  1
  O  O235  1  0.420795  0.681063  0.503953  1
  O  O236  1  0.179190  0.995211  0.578809  1
  O  O237  1  0.680122  0.504003  0.420732  1
  O  O238  1  0.022159  0.734178  0.496610  1
  O  O239  1  0.523507  0.765892  0.504545  1
  O  O240  1  0.264384  0.994921  0.476422  1
  O  O241  1  0.765826  0.503179  0.522879  1
  O  O242  1  0.561732  0.565532  0.420773  1
  O  O243  1  0.058992  0.936154  0.580000  1
  O  O244  1  0.920335  0.940763  0.436532  1
  O  O245  1  0.422352  0.561859  0.565226  1
  O  O246  1  0.934574  0.920873  0.561424  1
  O  O247  1  0.437108  0.578680  0.439955  1
  Si  Si248  1  0.431036  0.633506  0.926038  1
  Si  Si249  1  0.070912  0.931027  0.865967  1
  Si  Si250  1  0.632742  0.573319  0.930253  1
  Si  Si251  1  0.467603  0.769065  0.961819  1
  Si  Si252  1  0.036793  0.966372  0.730137  1
  Si  Si253  1  0.536879  0.969080  0.770799  1
  Si  Si254  1  0.771210  0.534186  0.967326  1
  Si  Si255  1  0.339724  0.516383  0.956164  1
  Si  Si256  1  0.046010  0.839436  0.982581  1
  Si  Si257  1  0.516780  0.544901  0.839913  1
  Si  Si258  1  0.898178  0.604984  0.997203  1
  Si  Si259  1  0.605543  0.996920  0.898342  1
  Si  Si260  1  0.496947  0.898670  0.894561  1
  O  O261  1  0.482980  0.623532  0.985033  1
  O  O262  1  0.011265  0.982407  0.876915  1
  O  O263  1  0.623269  0.514447  0.982272  1
  O  O264  1  0.367984  0.589137  0.941876  1
  O  O265  1  0.057120  0.867686  0.910299  1
  O  O266  1  0.589022  0.557176  0.867624  1
  O  O267  1  0.469482  0.603259  0.864195  1
  O  O268  1  0.132365  0.971631  0.894671  1
  O  O269  1  0.603717  0.635488  0.968558  1
  O  O270  1  0.427227  0.711558  0.926564  1
  O  O271  1  0.070573  0.926139  0.788124  1
  O  O272  1  0.571332  0.928754  0.711922  1
  O  O273  1  0.711579  0.570489  0.927926  1
  O  O274  1  0.498778  0.821149  0.909728  1
  O  O275  1  0.089219  0.997821  0.679975  1
  O  O276  1  0.589491  0.999828  0.821395  1
  O  O277  1  0.918751  0.560146  0.936104  1
  O  O278  1  0.821454  0.587515  0.999265  1
  O  O279  1  0.920462  0.680663  0.995750  1
  O  O280  1  0.994554  0.920567  0.681292  1
  O  O281  1  0.680858  0.995727  0.920859  1
  O  O282  1  0.495583  0.921978  0.819446  1
  O  O283  1  0.023825  0.765544  0.994603  1
  O  O284  1  0.003875  0.524014  0.734788  1
  O  O285  1  0.265065  0.505170  0.977070  1
  O  O286  1  0.505462  0.523093  0.765829  1
  O  O287  1  0.436341  0.920917  0.939483  1
  O  O288  1  0.561032  0.936079  0.920489  1
