# generated using pymatgen
data_SiO2
_symmetry_space_group_name_H-M   'P 1'
_cell_length_a   18.43680830
_cell_length_b   18.42952014
_cell_length_c   18.43506050
_cell_angle_alpha   90.00000000
_cell_angle_beta   90.00000000
_cell_angle_gamma   90.00000000
_symmetry_Int_Tables_number   1
_chemical_formula_structural   SiO2
_chemical_formula_sum   'Si96 O192'
_cell_volume   6263.89306252
_cell_formula_units_Z   96
loop_
 _symmetry_equiv_pos_site_id
 _symmetry_equiv_pos_as_xyz
  1  'x, y, z'
loop_
 _atom_site_type_symbol
 _atom_site_label
 _atom_site_symmetry_multiplicity
 _atom_site_fract_x
 _atom_site_fract_y
 _atom_site_fract_z
 _atom_site_occupancy
  Si  Si1  1  0.680086  0.201812  0.083640  1
  Si  Si2  1  0.916508  0.319845  0.201963  1
  O  O3  1  0.832713  0.499940  0.311245  1
  O  O4  1  0.688844  0.499896  0.167330  1
  O  O5  1  0.000110  0.332454  0.188629  1
  O  O6  1  0.500071  0.167392  0.311356  1
  O  O7  1  0.500130  0.311317  0.167293  1
  O  O8  1  0.311343  0.499958  0.167409  1
  O  O9  1  0.092654  0.248951  0.249107  1
  O  O10  1  0.249214  0.092604  0.249119  1
  O  O11  1  0.249233  0.248988  0.092564  1
  O  O12  1  0.907538  0.248972  0.249182  1
  O  O13  1  0.750967  0.092588  0.249202  1
  O  O14  1  0.751012  0.248913  0.092611  1
  O  O15  1  0.749253  0.407257  0.250884  1
  O  O16  1  0.592648  0.250867  0.250882  1
  O  O17  1  0.407550  0.250924  0.250810  1
  O  O18  1  0.250993  0.407253  0.250837  1
  O  O19  1  0.382385  0.117716  0.250033  1
  O  O20  1  0.250049  0.382209  0.117651  1
  O  O21  1  0.617781  0.117643  0.250074  1
  O  O22  1  0.750177  0.382134  0.117718  1
  O  O23  1  0.117807  0.382180  0.249914  1
  O  O24  1  0.382441  0.249936  0.117601  1
  O  O25  1  0.617818  0.249904  0.117698  1
  O  O26  1  0.882435  0.382187  0.249976  1
  O  O27  1  0.131085  0.130871  0.313357  1
  O  O28  1  0.313446  0.130882  0.130955  1
  O  O29  1  0.131076  0.313089  0.130961  1
  O  O30  1  0.869093  0.130888  0.313428  1
  O  O31  1  0.686780  0.130843  0.131030  1
  O  O32  1  0.869161  0.313075  0.131003  1
  O  O33  1  0.631120  0.368953  0.186674  1
  O  O34  1  0.369138  0.369003  0.186566  1
  Si  Si35  1  0.083693  0.201837  0.320037  1
  Si  Si36  1  0.320111  0.083608  0.201993  1
  Si  Si37  1  0.202022  0.319862  0.083607  1
  Si  Si38  1  0.916478  0.201859  0.320112  1
  Si  Si39  1  0.680089  0.083560  0.202055  1
  Si  Si40  1  0.798202  0.319802  0.083659  1
  Si  Si41  1  0.202110  0.083602  0.320038  1
  Si  Si42  1  0.083718  0.319842  0.201910  1
  Si  Si43  1  0.320136  0.201862  0.083570  1
  Si  Si44  1  0.702126  0.416248  0.179983  1
  Si  Si45  1  0.583683  0.179979  0.298076  1
  Si  Si46  1  0.416515  0.298026  0.179876  1
  Si  Si47  1  0.180091  0.416270  0.297956  1
  Si  Si48  1  0.583729  0.297991  0.179958  1
  Si  Si49  1  0.820143  0.416274  0.298014  1
  Si  Si50  1  0.298115  0.416285  0.179933  1
  Si  Si51  1  0.416474  0.180051  0.298035  1
  Si  Si52  1  0.798083  0.083595  0.320110  1
  O  O53  1  0.667403  0.188502  0.000029  1
  O  O54  1  0.000089  0.188535  0.332686  1
  O  O55  1  0.167465  0.499912  0.311292  1
  O  O56  1  0.811435  0.332391  0.000029  1
  Si  Si57  1  0.701850  0.180066  0.583635  1
  Si  Si58  1  0.701967  0.180030  0.416400  1
  Si  Si59  1  0.179853  0.298084  0.583619  1
  O  O60  1  0.832638  0.311332  0.500054  1
  O  O61  1  0.311415  0.167525  0.499980  1
  O  O62  1  0.688586  0.167465  0.500011  1
  O  O63  1  0.167339  0.311372  0.499982  1
  Si  Si64  1  0.180016  0.298027  0.416376  1
  O  O65  1  0.749067  0.250934  0.592618  1
  O  O66  1  0.749177  0.250906  0.407428  1
  O  O67  1  0.250950  0.250943  0.407402  1
  O  O68  1  0.250791  0.251001  0.592584  1
  O  O69  1  0.117757  0.249931  0.382307  1
  O  O70  1  0.117581  0.249961  0.617647  1
  O  O71  1  0.882400  0.249935  0.382396  1
  O  O72  1  0.882263  0.249899  0.617725  1
  O  O73  1  0.250168  0.117732  0.382290  1
  O  O74  1  0.250027  0.117776  0.617635  1
  O  O75  1  0.750014  0.117687  0.382380  1
  O  O76  1  0.749850  0.117719  0.617703  1
  O  O77  1  0.630900  0.186835  0.630981  1
  O  O78  1  0.813346  0.368992  0.631053  1
  O  O79  1  0.631025  0.186751  0.369034  1
  O  O80  1  0.813446  0.368992  0.369041  1
  O  O81  1  0.186738  0.368986  0.368981  1
  O  O82  1  0.369124  0.186841  0.368993  1
  O  O83  1  0.186471  0.369077  0.630996  1
  O  O84  1  0.368971  0.186900  0.630929  1
  Si  Si85  1  0.820008  0.298014  0.583670  1
  Si  Si86  1  0.820096  0.298012  0.416426  1
  Si  Si87  1  0.298174  0.180080  0.416347  1
  Si  Si88  1  0.298021  0.180141  0.583584  1
  O  O89  1  0.832720  0.499930  0.688807  1
  Si  Si90  1  0.916342  0.319789  0.798128  1
  Si  Si91  1  0.797877  0.083594  0.679980  1
  O  O92  1  0.188641  0.332445  0.999998  1
  Si  Si93  1  0.679885  0.201842  0.916396  1
  Si  Si94  1  0.416340  0.180123  0.701867  1
  O  O95  1  0.999944  0.332381  0.811452  1
  O  O96  1  0.499943  0.167523  0.688561  1
  O  O97  1  0.499951  0.311430  0.832634  1
  O  O98  1  0.311142  0.499958  0.832721  1
  O  O99  1  0.092509  0.248953  0.750860  1
  O  O100  1  0.249147  0.092644  0.750820  1
  O  O101  1  0.249098  0.248971  0.907387  1
  O  O102  1  0.907383  0.248908  0.750921  1
  O  O103  1  0.750733  0.092582  0.750871  1
  O  O104  1  0.750809  0.248943  0.907424  1
  O  O105  1  0.749143  0.407278  0.749192  1
  O  O106  1  0.592519  0.250946  0.749164  1
  O  O107  1  0.407394  0.251005  0.749074  1
  O  O108  1  0.250728  0.407337  0.749124  1
  O  O109  1  0.382301  0.117759  0.749873  1
  O  O110  1  0.249867  0.382179  0.882287  1
  O  O111  1  0.617563  0.117705  0.749939  1
  O  O112  1  0.750035  0.382168  0.882378  1
  O  O113  1  0.117562  0.382193  0.750094  1
  O  O114  1  0.382289  0.250023  0.882269  1
  O  O115  1  0.617597  0.249956  0.882381  1
  O  O116  1  0.882302  0.382145  0.750115  1
  O  O117  1  0.130970  0.130902  0.686612  1
  O  O118  1  0.313377  0.130925  0.868944  1
  O  O119  1  0.130915  0.313059  0.869043  1
  O  O120  1  0.868909  0.130851  0.686685  1
  O  O121  1  0.686522  0.130863  0.869007  1
  O  O122  1  0.868978  0.313034  0.869070  1
  O  O123  1  0.630980  0.369010  0.813401  1
  O  O124  1  0.368919  0.369065  0.813293  1
  Si  Si125  1  0.083546  0.201847  0.679929  1
  Si  Si126  1  0.320053  0.083628  0.797929  1
  Si  Si127  1  0.201878  0.319836  0.916371  1
  Si  Si128  1  0.916328  0.201797  0.679990  1
  Si  Si129  1  0.679829  0.083576  0.797982  1
  Si  Si130  1  0.798036  0.319803  0.916423  1
  Si  Si131  1  0.202010  0.083652  0.679925  1
  Si  Si132  1  0.083545  0.319814  0.798097  1
  Si  Si133  1  0.320045  0.201898  0.916329  1
  Si  Si134  1  0.702007  0.416277  0.820086  1
  Si  Si135  1  0.583543  0.180082  0.701933  1
  Si  Si136  1  0.416345  0.298124  0.819997  1
  Si  Si137  1  0.179805  0.416343  0.702041  1
  Si  Si138  1  0.583562  0.298062  0.820090  1
  Si  Si139  1  0.820044  0.416281  0.702074  1
  Si  Si140  1  0.297883  0.416316  0.820011  1
  O  O141  1  0.999937  0.188490  0.667365  1
  O  O142  1  0.688794  0.499943  0.832661  1
  O  O143  1  0.332684  0.188561  0.999940  1
  O  O144  1  0.500050  0.688530  0.167386  1
  Si  Si145  1  0.416468  0.819855  0.298200  1
  O  O146  1  0.500085  0.832450  0.311445  1
  O  O147  1  0.000064  0.667394  0.188682  1
  O  O148  1  0.332697  0.811363  0.000122  1
  Si  Si149  1  0.298058  0.583602  0.180088  1
  O  O150  1  0.667483  0.999907  0.188767  1
  O  O151  1  0.592630  0.748942  0.250859  1
  O  O152  1  0.749182  0.592581  0.250820  1
  O  O153  1  0.407518  0.748973  0.250993  1
  O  O154  1  0.250931  0.592604  0.250991  1
  O  O155  1  0.249222  0.907282  0.249270  1
  O  O156  1  0.092625  0.750895  0.249246  1
  O  O157  1  0.249173  0.750926  0.092729  1
  O  O158  1  0.907509  0.750916  0.249104  1
  O  O159  1  0.750949  0.907254  0.249155  1
  O  O160  1  0.750936  0.750876  0.092566  1
  O  O161  1  0.617729  0.749913  0.117652  1
  O  O162  1  0.882354  0.617691  0.249917  1
  O  O163  1  0.382371  0.749936  0.117791  1
  O  O164  1  0.117737  0.617670  0.250073  1
  O  O165  1  0.750127  0.617661  0.117644  1
  O  O166  1  0.617759  0.882163  0.250046  1
  O  O167  1  0.382394  0.882200  0.250193  1
  O  O168  1  0.250007  0.617709  0.117815  1
  O  O169  1  0.631047  0.630846  0.186591  1
  O  O170  1  0.369068  0.630892  0.186779  1
  O  O171  1  0.131071  0.869002  0.313468  1
  O  O172  1  0.131025  0.686772  0.131114  1
  O  O173  1  0.313422  0.868994  0.131132  1
  O  O174  1  0.869081  0.868995  0.313369  1
  O  O175  1  0.686735  0.868957  0.130993  1
  O  O176  1  0.869110  0.686762  0.130943  1
  Si  Si177  1  0.583668  0.701825  0.179934  1
  Si  Si178  1  0.820074  0.583588  0.297952  1
  Si  Si179  1  0.416454  0.701857  0.180064  1
  Si  Si180  1  0.180031  0.583585  0.298109  1
  Si  Si181  1  0.702065  0.583563  0.179914  1
  Si  Si182  1  0.583678  0.819829  0.298062  1
  Si  Si183  1  0.202088  0.916286  0.320163  1
  Si  Si184  1  0.083660  0.680004  0.202055  1
  Si  Si185  1  0.320095  0.798028  0.083740  1
  Si  Si186  1  0.916463  0.798022  0.320040  1
  Si  Si187  1  0.680061  0.916246  0.202017  1
  Si  Si188  1  0.798150  0.680007  0.083599  1
  Si  Si189  1  0.083677  0.798036  0.320155  1
  Si  Si190  1  0.320115  0.916292  0.202144  1
  Si  Si191  1  0.201975  0.680043  0.083766  1
  Si  Si192  1  0.798068  0.916280  0.320059  1
  Si  Si193  1  0.916450  0.680020  0.201911  1
  Si  Si194  1  0.680020  0.797990  0.083599  1
  O  O195  1  0.811332  0.999933  0.332696  1
  O  O196  1  0.188859  0.999954  0.332727  1
  O  O197  1  0.000062  0.811347  0.332704  1
  O  O198  1  0.332723  0.999939  0.188811  1
  O  O199  1  0.188649  0.667486  0.000147  1
  O  O200  1  0.688634  0.832378  0.499979  1
  O  O201  1  0.311444  0.832415  0.500109  1
  Si  Si202  1  0.179927  0.701910  0.583755  1
  O  O203  1  0.832720  0.688535  0.499983  1
  Si  Si204  1  0.820109  0.701846  0.416363  1
  Si  Si205  1  0.820142  0.701858  0.583606  1
  Si  Si206  1  0.179995  0.701858  0.416511  1
  O  O207  1  0.167359  0.688575  0.500133  1
  O  O208  1  0.749192  0.748923  0.592573  1
  O  O209  1  0.749193  0.748957  0.407392  1
  O  O210  1  0.250866  0.748987  0.592712  1
  O  O211  1  0.250926  0.748951  0.407531  1
  O  O212  1  0.749909  0.882142  0.617648  1
  O  O213  1  0.750011  0.882177  0.382330  1
  O  O214  1  0.250116  0.882206  0.617775  1
  O  O215  1  0.250128  0.882174  0.382441  1
  O  O216  1  0.882402  0.749990  0.617645  1
  O  O217  1  0.882389  0.749925  0.382305  1
  O  O218  1  0.117674  0.750032  0.617806  1
  O  O219  1  0.117726  0.749952  0.382446  1
  O  O220  1  0.813492  0.630877  0.630988  1
  O  O221  1  0.630976  0.812980  0.630933  1
  O  O222  1  0.813394  0.630879  0.368973  1
  O  O223  1  0.631044  0.813069  0.369002  1
  O  O224  1  0.186575  0.630944  0.631154  1
  O  O225  1  0.369037  0.813040  0.631085  1
  O  O226  1  0.186676  0.630865  0.369147  1
  O  O227  1  0.369109  0.813082  0.369153  1
  Si  Si228  1  0.701935  0.819765  0.583595  1
  Si  Si229  1  0.701982  0.819828  0.416362  1
  Si  Si230  1  0.298104  0.819839  0.583724  1
  Si  Si231  1  0.298143  0.819823  0.416489  1
  O  O232  1  0.500021  0.688465  0.832708  1
  Si  Si233  1  0.679956  0.798006  0.916357  1
  Si  Si234  1  0.916418  0.680110  0.798080  1
  O  O235  1  0.500003  0.832355  0.688615  1
  O  O236  1  0.000013  0.667581  0.811506  1
  Si  Si237  1  0.297935  0.583629  0.820169  1
  Si  Si238  1  0.416408  0.819796  0.702022  1
  O  O239  1  0.592561  0.748887  0.749111  1
  O  O240  1  0.749225  0.592604  0.749119  1
  O  O241  1  0.407442  0.748929  0.749249  1
  O  O242  1  0.250795  0.592647  0.749279  1
  O  O243  1  0.249214  0.907324  0.750949  1
  O  O244  1  0.092581  0.751058  0.751024  1
  O  O245  1  0.249183  0.750969  0.907548  1
  O  O246  1  0.907439  0.750979  0.750857  1
  O  O247  1  0.750810  0.907276  0.750819  1
  O  O248  1  0.750883  0.750912  0.907394  1
  O  O249  1  0.617689  0.749892  0.882318  1
  O  O250  1  0.882409  0.617727  0.750070  1
  O  O251  1  0.382383  0.749935  0.882457  1
  O  O252  1  0.117650  0.617820  0.750238  1
  O  O253  1  0.750106  0.617696  0.882294  1
  O  O254  1  0.617659  0.882115  0.749884  1
  O  O255  1  0.382384  0.882169  0.750029  1
  O  O256  1  0.249914  0.617746  0.882458  1
  O  O257  1  0.631043  0.630849  0.813331  1
  O  O258  1  0.368977  0.630875  0.813497  1
  O  O259  1  0.131047  0.869093  0.686747  1
  O  O260  1  0.130981  0.686922  0.869203  1
  O  O261  1  0.313449  0.869036  0.869105  1
  O  O262  1  0.868980  0.869043  0.686606  1
  O  O263  1  0.686608  0.868974  0.868958  1
  O  O264  1  0.869040  0.686850  0.869013  1
  Si  Si265  1  0.583622  0.701790  0.820051  1
  Si  Si266  1  0.820143  0.583599  0.702023  1
  Si  Si267  1  0.416407  0.701816  0.820175  1
  Si  Si268  1  0.179880  0.583663  0.702178  1
  Si  Si269  1  0.702076  0.583589  0.820007  1
  Si  Si270  1  0.583613  0.819753  0.701883  1
  Si  Si271  1  0.202086  0.916339  0.680048  1
  Si  Si272  1  0.083623  0.680186  0.798247  1
  Si  Si273  1  0.320117  0.798057  0.916496  1
  Si  Si274  1  0.916413  0.798103  0.679939  1
  Si  Si275  1  0.679905  0.916258  0.797934  1
  Si  Si276  1  0.798102  0.680046  0.916365  1
  Si  Si277  1  0.083628  0.798146  0.680076  1
  Si  Si278  1  0.320119  0.916309  0.798065  1
  Si  Si279  1  0.201944  0.680116  0.916532  1
  Si  Si280  1  0.797936  0.916282  0.679919  1
  O  O281  1  0.332716  0.999982  0.811237  1
  O  O282  1  0.167193  0.500018  0.688887  1
  O  O283  1  0.811136  0.999947  0.667311  1
  O  O284  1  0.188816  0.999982  0.667357  1
  O  O285  1  0.000027  0.811468  0.667426  1
  O  O286  1  0.667232  0.999909  0.811199  1
  O  O287  1  0.667398  0.811324  0.999983  1
  O  O288  1  0.811443  0.667432  0.999976  1
