# generated using pymatgen
data_SiO2
_symmetry_space_group_name_H-M   'P 1'
_cell_length_a   12.87039381
_cell_length_b   12.87123341
_cell_length_c   22.81355033
_cell_angle_alpha   90.00000000
_cell_angle_beta   90.00000000
_cell_angle_gamma   120.00000000
_symmetry_Int_Tables_number   1
_chemical_formula_structural   SiO2
_chemical_formula_sum   'Si54 O108'
_cell_volume   3272.92090657
_cell_formula_units_Z   54
loop_
 _symmetry_equiv_pos_site_id
 _symmetry_equiv_pos_as_xyz
  1  'x, y, z'
loop_
 _atom_site_type_symbol
 _atom_site_label
 _atom_site_symmetry_multiplicity
 _atom_site_fract_x
 _atom_site_fract_y
 _atom_site_fract_z
 _atom_site_occupancy
  O  O1  1  0.034624  0.345204  0.111356  1
  O  O2  1  0.034658  0.686202  0.111346  1
  O  O3  1  0.014978  0.646902  0.222060  1
  O  O4  1  0.014872  0.364781  0.222091  1
  Si  Si5  1  0.095953  0.666517  0.166706  1
  Si  Si6  1  0.095874  0.426125  0.166738  1
  O  O7  1  0.107395  0.208676  0.072862  1
  O  O8  1  0.107457  0.895520  0.072874  1
  O  O9  1  0.109168  0.552941  0.157954  1
  Si  Si10  1  0.003342  0.239342  0.067267  1
  Si  Si11  1  0.003357  0.760822  0.067291  1
  O  O12  1  0.002993  0.270746  0.000022  1
  O  O13  1  0.002959  0.729014  0.000051  1
  O  O14  1  0.316643  0.345280  0.111306  1
  O  O15  1  0.316702  0.968208  0.111334  1
  O  O16  1  0.355921  0.364916  0.222012  1
  O  O17  1  0.249042  0.122918  0.081335  1
  O  O18  1  0.222791  0.780023  0.175461  1
  O  O19  1  0.355844  0.987827  0.222051  1
  O  O20  1  0.449808  0.553068  0.157885  1
  O  O21  1  0.449839  0.893601  0.157938  1
  O  O22  1  0.423481  0.210187  0.252034  1
  Si  Si23  1  0.242160  0.999580  0.067268  1
  Si  Si24  1  0.242106  0.239338  0.067251  1
  Si  Si25  1  0.430415  0.333546  0.266104  1
  Si  Si26  1  0.430335  0.093731  0.266132  1
  O  O27  1  0.222714  0.439463  0.175486  1
  Si  Si28  1  0.336297  0.906863  0.166700  1
  Si  Si29  1  0.336273  0.426250  0.166663  1
  O  O30  1  0.273895  0.999883  0.000023  1
  O  O31  1  0.273808  0.270737  0.000002  1
  O  O32  1  0.022291  0.698233  0.555401  1
  O  O33  1  0.022290  0.321249  0.555417  1
  O  O34  1  0.090056  0.543636  0.585407  1
  Si  Si35  1  0.002660  0.240292  0.500052  1
  Si  Si36  1  0.002607  0.759563  0.500054  1
  Si  Si37  1  0.096908  0.666958  0.599468  1
  Si  Si38  1  0.096881  0.427156  0.599483  1
  O  O39  1  0.116234  0.227104  0.491233  1
  O  O40  1  0.116082  0.886423  0.491303  1
  O  O41  1  0.231567  0.457758  0.593883  1
  O  O42  1  0.231595  0.771056  0.593849  1
  O  O43  1  0.460473  0.228752  0.406211  1
  O  O44  1  0.324039  0.301646  0.444653  1
  Si  Si45  1  0.243024  0.240338  0.500003  1
  O  O46  1  0.304326  0.321254  0.555381  1
  O  O47  1  0.458907  0.543627  0.585376  1
  O  O48  1  0.323865  0.019492  0.444672  1
  O  O49  1  0.458989  0.912664  0.585362  1
  O  O50  1  0.229668  0.113493  0.508771  1
  Si  Si51  1  0.429813  0.094036  0.400619  1
  Si  Si52  1  0.429925  0.332879  0.400588  1
  O  O53  1  0.304276  0.980335  0.555395  1
  Si  Si54  1  0.335639  0.427131  0.599467  1
  Si  Si55  1  0.335657  0.905769  0.599446  1
  Si  Si56  1  0.242921  0.999936  0.500034  1
  O  O57  1  0.398563  0.333219  0.333336  1
  O  O58  1  0.398475  0.062302  0.333368  1
  Si  Si59  1  0.096761  0.427534  0.733965  1
  Si  Si60  1  0.096661  0.666267  0.733952  1
  O  O61  1  0.125978  0.876833  0.918719  1
  O  O62  1  0.125853  0.245718  0.918687  1
  O  O63  1  0.127370  0.562241  0.739537  1
  Si  Si64  1  0.002573  0.238920  0.932782  1
  O  O65  1  0.065176  0.666614  0.666716  1
  O  O66  1  0.065208  0.395740  0.666732  1
  Si  Si67  1  0.002621  0.760425  0.932806  1
  O  O68  1  0.348328  0.031584  0.888712  1
  O  O69  1  0.336016  0.937491  0.666695  1
  Si  Si70  1  0.336521  0.427510  0.733953  1
  O  O71  1  0.440473  0.875402  0.739520  1
  Si  Si72  1  0.429237  0.333284  0.833349  1
  O  O73  1  0.211750  0.104226  0.927184  1
  O  O74  1  0.440593  0.562215  0.739553  1
  O  O75  1  0.367852  0.011982  0.778003  1
  O  O76  1  0.367883  0.352916  0.777997  1
  Si  Si77  1  0.242421  0.000179  0.932784  1
  O  O78  1  0.213225  0.420681  0.748038  1
  O  O79  1  0.442588  0.219786  0.824587  1
  O  O80  1  0.348243  0.313556  0.888705  1
  O  O81  1  0.213088  0.789618  0.748029  1
  Si  Si82  1  0.429270  0.092951  0.833352  1
  Si  Si83  1  0.336414  0.906056  0.733932  1
  Si  Si84  1  0.242346  0.238926  0.932766  1
  O  O85  1  0.336084  0.395732  0.666706  1
  O  O86  1  0.794203  0.895574  0.072878  1
  O  O87  1  0.565047  0.124387  0.260553  1
  O  O88  1  0.878379  0.437614  0.260517  1
  O  O89  1  0.565149  0.437568  0.260522  1
  O  O90  1  0.657685  0.686267  0.111340  1
  O  O91  1  0.657665  0.968296  0.111380  1
  O  O92  1  0.637859  0.987855  0.222106  1
  O  O93  1  0.637930  0.646854  0.222023  1
  O  O94  1  0.879994  0.122929  0.081342  1
  O  O95  1  0.880082  0.754042  0.081381  1
  O  O96  1  0.792460  0.210206  0.252081  1
  O  O97  1  0.792563  0.579159  0.252023  1
  Si  Si98  1  0.908950  0.333505  0.266145  1
  Si  Si99  1  0.669234  0.572278  0.266097  1
  O  O100  1  0.563406  0.780115  0.175480  1
  Si  Si101  1  0.576660  0.906921  0.166722  1
  Si  Si102  1  0.763615  0.760878  0.067293  1
  Si  Si103  1  0.763522  0.999615  0.067286  1
  Si  Si104  1  0.576645  0.666565  0.166674  1
  Si  Si105  1  0.669127  0.093767  0.266161  1
  Si  Si106  1  0.909030  0.572328  0.266109  1
  O  O107  1  0.732021  0.999893  0.000047  1
  O  O108  1  0.669460  0.604076  0.333328  1
  O  O109  1  0.732166  0.729061  0.000056  1
  O  O110  1  0.773822  0.542104  0.406180  1
  O  O111  1  0.773675  0.228867  0.406226  1
  O  O112  1  0.544737  0.771017  0.593852  1
  O  O113  1  0.700960  0.678556  0.444647  1
  O  O114  1  0.982947  0.301610  0.444717  1
  O  O115  1  0.983052  0.678664  0.444675  1
  O  O116  1  0.701012  0.019590  0.444701  1
  O  O117  1  0.681359  0.980285  0.555390  1
  O  O118  1  0.681218  0.698210  0.555354  1
  O  O119  1  0.546420  0.456172  0.414649  1
  O  O120  1  0.546264  0.087175  0.414711  1
  O  O121  1  0.915312  0.456271  0.414696  1
  Si  Si122  1  0.762243  0.759518  0.500015  1
  Si  Si123  1  0.762347  0.999920  0.500043  1
  Si  Si124  1  0.575371  0.666941  0.599443  1
  O  O125  1  0.775582  0.886362  0.491252  1
  O  O126  1  0.889173  0.113438  0.508815  1
  O  O127  1  0.889025  0.772754  0.508826  1
  Si  Si128  1  0.669709  0.572665  0.400578  1
  Si  Si129  1  0.908395  0.332919  0.400633  1
  Si  Si130  1  0.908528  0.572761  0.400595  1
  Si  Si131  1  0.669632  0.094135  0.400644  1
  Si  Si132  1  0.575415  0.905744  0.599440  1
  O  O133  1  0.940372  0.604132  0.333354  1
  O  O134  1  0.940259  0.333211  0.333407  1
  O  O135  1  0.669396  0.062355  0.333410  1
  O  O136  1  0.898585  0.791112  0.927204  1
  O  O137  1  0.898459  0.104231  0.927199  1
  O  O138  1  0.990894  0.352941  0.778041  1
  O  O139  1  0.649909  0.635030  0.777992  1
  O  O140  1  0.990777  0.634865  0.778036  1
  O  O141  1  0.649817  0.011929  0.777991  1
  O  O142  1  0.971183  0.654485  0.888745  1
  O  O143  1  0.689187  0.031501  0.888719  1
  O  O144  1  0.689261  0.654595  0.888726  1
  O  O145  1  0.971259  0.313539  0.888733  1
  O  O146  1  0.582083  0.789607  0.747996  1
  O  O147  1  0.756929  0.876877  0.918738  1
  Si  Si148  1  0.909814  0.573521  0.833390  1
  Si  Si149  1  0.669564  0.092872  0.833371  1
  Si  Si150  1  0.909908  0.333219  0.833396  1
  Si  Si151  1  0.669551  0.573666  0.833343  1
  Si  Si152  1  0.763874  0.760463  0.932808  1
  O  O153  1  0.783126  0.219663  0.824602  1
  O  O154  1  0.783034  0.560299  0.824586  1
  O  O155  1  0.556011  0.446863  0.842120  1
  O  O156  1  0.556074  0.106220  0.842132  1
  O  O157  1  0.896542  0.446706  0.842172  1
  Si  Si158  1  0.575276  0.666308  0.733930  1
  Si  Si159  1  0.575180  0.906044  0.733923  1
  Si  Si160  1  0.763751  0.000183  0.932801  1
  O  O161  1  0.606905  0.937495  0.666679  1
  O  O162  1  0.606911  0.666619  0.666671  1
