# generated using pymatgen
data_SiO2
_symmetry_space_group_name_H-M   'P 1'
_cell_length_a   12.27845521
_cell_length_b   12.27826969
_cell_length_c   10.22726789
_cell_angle_alpha   90.00000000
_cell_angle_beta   90.00000000
_cell_angle_gamma   120.00000000
_symmetry_Int_Tables_number   1
_chemical_formula_structural   SiO2
_chemical_formula_sum   'Si24 O48'
_cell_volume   1335.27636675
_cell_formula_units_Z   24
loop_
 _symmetry_equiv_pos_site_id
 _symmetry_equiv_pos_as_xyz
  1  'x, y, z'
loop_
 _atom_site_type_symbol
 _atom_site_label
 _atom_site_symmetry_multiplicity
 _atom_site_fract_x
 _atom_site_fract_y
 _atom_site_fract_z
 _atom_site_occupancy
  O  O1  1  0.444563  0.221141  0.250748  1
  O  O2  1  0.222278  0.443443  0.750797  1
  O  O3  1  0.333899  0.018262  0.125296  1
  O  O4  1  0.314633  0.332964  0.625239  1
  O  O5  1  0.333915  0.313350  0.125244  1
  O  O6  1  0.019370  0.332627  0.625386  1
  O  O7  1  0.314369  0.332610  0.876177  1
  O  O8  1  0.333953  0.018274  0.376231  1
  O  O9  1  0.019428  0.332952  0.876323  1
  O  O10  1  0.333913  0.313386  0.376182  1
  O  O11  1  0.118237  0.235509  0.018812  1
  O  O12  1  0.236776  0.117255  0.518835  1
  O  O13  1  0.236303  0.116993  0.982930  1
  O  O14  1  0.118268  0.235279  0.482919  1
  Si  Si15  1  0.414331  0.080946  0.250745  1
  Si  Si16  1  0.332238  0.413201  0.750819  1
  Si  Si17  1  0.414325  0.331103  0.250716  1
  Si  Si18  1  0.082077  0.413199  0.750755  1
  Si  Si19  1  0.251785  0.250688  0.000783  1
  Si  Si20  1  0.251979  0.250810  0.500784  1
  O  O21  1  0.222269  0.776549  0.750791  1
  O  O22  1  0.019387  0.684444  0.625332  1
  O  O23  1  0.314613  0.979405  0.625290  1
  O  O24  1  0.019396  0.684198  0.876271  1
  O  O25  1  0.314392  0.979440  0.876227  1
  O  O26  1  0.461942  0.922770  0.751035  1
  O  O27  1  0.076037  0.536877  0.750482  1
  O  O28  1  0.461948  0.536871  0.751068  1
  O  O29  1  0.118239  0.880413  0.018823  1
  O  O30  1  0.118285  0.880720  0.482911  1
  Si  Si31  1  0.082070  0.666590  0.750727  1
  Si  Si32  1  0.332232  0.916745  0.750835  1
  Si  Si33  1  0.251989  0.998905  0.500812  1
  Si  Si34  1  0.251789  0.998783  0.000813  1
  O  O35  1  0.777689  0.221142  0.250890  1
  O  O36  1  0.980544  0.313513  0.125376  1
  O  O37  1  0.685555  0.018253  0.125450  1
  O  O38  1  0.980585  0.313225  0.376313  1
  O  O39  1  0.685353  0.018281  0.376388  1
  O  O40  1  0.538018  0.074919  0.250672  1
  O  O41  1  0.923917  0.460814  0.251252  1
  O  O42  1  0.538002  0.460814  0.250661  1
  O  O43  1  0.881665  0.116986  0.518789  1
  O  O44  1  0.881724  0.117262  0.982878  1
  Si  Si45  1  0.917887  0.331098  0.250944  1
  Si  Si46  1  0.667722  0.080943  0.250852  1
  Si  Si47  1  0.999970  0.250599  0.500854  1
  Si  Si48  1  0.999984  0.250896  0.000850  1
  O  O49  1  0.777676  0.554247  0.250882  1
  O  O50  1  0.555394  0.776547  0.750933  1
  O  O51  1  0.685563  0.665043  0.125475  1
  O  O52  1  0.665991  0.979413  0.625445  1
  O  O53  1  0.980514  0.664698  0.125324  1
  O  O54  1  0.666009  0.684284  0.625470  1
  O  O55  1  0.666071  0.979432  0.876383  1
  O  O56  1  0.685347  0.664763  0.376412  1
  O  O57  1  0.666073  0.684358  0.876405  1
  O  O58  1  0.980602  0.665104  0.376261  1
  O  O59  1  0.763630  0.880684  0.018770  1
  O  O60  1  0.881679  0.762392  0.518781  1
  O  O61  1  0.881728  0.762200  0.982888  1
  O  O62  1  0.763203  0.880451  0.482866  1
  Si  Si63  1  0.667721  0.584493  0.250858  1
  Si  Si64  1  0.585622  0.916745  0.750941  1
  Si  Si65  1  0.917878  0.584489  0.250920  1
  Si  Si66  1  0.585635  0.666591  0.750957  1
  Si  Si67  1  0.748169  0.746998  0.000894  1
  Si  Si68  1  0.747970  0.998788  0.500877  1
  Si  Si69  1  0.747979  0.746884  0.500890  1
  Si  Si70  1  0.748164  0.998902  0.000874  1
  Si  Si71  1  0.999970  0.746789  0.000824  1
  Si  Si72  1  0.999988  0.747095  0.500819  1
