# generated using pymatgen
data_SiO2
_symmetry_space_group_name_H-M   'P 1'
_cell_length_a   7.17838627
_cell_length_b   7.17893240
_cell_length_c   20.76204315
_cell_angle_alpha   90.00000000
_cell_angle_beta   90.00000000
_cell_angle_gamma   90.00000000
_symmetry_Int_Tables_number   1
_chemical_formula_structural   SiO2
_chemical_formula_sum   'Si18 O36'
_cell_volume   1069.93347907
_cell_formula_units_Z   18
loop_
 _symmetry_equiv_pos_site_id
 _symmetry_equiv_pos_as_xyz
  1  'x, y, z'
loop_
 _atom_site_type_symbol
 _atom_site_label
 _atom_site_symmetry_multiplicity
 _atom_site_fract_x
 _atom_site_fract_y
 _atom_site_fract_z
 _atom_site_occupancy
  O  O1  1  0.259352  0.499861  0.999936  1
  O  O2  1  0.500052  0.259218  0.499947  1
  O  O3  1  0.740789  0.499868  0.999953  1
  O  O4  1  0.500045  0.740585  0.499942  1
  O  O5  1  0.179599  0.676426  0.101806  1
  O  O6  1  0.323778  0.179498  0.601872  1
  O  O7  1  0.820451  0.323709  0.101899  1
  O  O8  1  0.676481  0.820324  0.601832  1
  O  O9  1  0.820456  0.676427  0.101824  1
  O  O10  1  0.676477  0.179496  0.601844  1
  O  O11  1  0.179604  0.323710  0.101884  1
  O  O12  1  0.323774  0.820323  0.601862  1
  O  O13  1  0.820547  0.323186  0.898109  1
  O  O14  1  0.676107  0.820310  0.397977  1
  O  O15  1  0.179696  0.675903  0.897963  1
  O  O16  1  0.323404  0.179484  0.398097  1
  O  O17  1  0.179690  0.323187  0.898087  1
  O  O18  1  0.323404  0.820315  0.398092  1
  O  O19  1  0.820542  0.675904  0.897983  1
  O  O20  1  0.676107  0.179489  0.397979  1
  O  O21  1  0.500026  0.500053  0.090416  1
  O  O22  1  0.500120  0.499909  0.590398  1
  O  O23  1  0.500118  0.499567  0.909472  1
  O  O24  1  0.499775  0.499898  0.409491  1
  O  O25  1  0.000028  0.000083  0.097555  1
  O  O26  1  0.000134  0.999917  0.597552  1
  O  O27  1  0.000124  0.999517  0.902334  1
  O  O28  1  0.999730  0.999900  0.402337  1
  O  O29  1  0.000049  0.828833  0.199673  1
  O  O30  1  0.171317  0.999871  0.699707  1
  O  O31  1  0.000045  0.171117  0.199717  1
  O  O32  1  0.828868  0.999867  0.699690  1
  O  O33  1  0.000070  0.170846  0.800231  1
  O  O34  1  0.828681  0.999897  0.300156  1
  O  O35  1  0.000074  0.828562  0.800156  1
  O  O36  1  0.171129  0.999902  0.300225  1
  Si  Si37  1  0.285088  0.500018  0.074842  1
  Si  Si38  1  0.500110  0.285035  0.574847  1
  Si  Si39  1  0.714973  0.500020  0.074855  1
  Si  Si40  1  0.500108  0.714780  0.574843  1
  Si  Si41  1  0.715056  0.499626  0.925047  1
  Si  Si42  1  0.499829  0.714772  0.425042  1
  Si  Si43  1  0.285170  0.499624  0.925033  1
  Si  Si44  1  0.499831  0.285026  0.425046  1
  Si  Si45  1  0.000037  0.787982  0.123174  1
  Si  Si46  1  0.212273  0.999907  0.623216  1
  Si  Si47  1  0.000035  0.212132  0.123230  1
  Si  Si48  1  0.787975  0.999905  0.623194  1
  Si  Si49  1  0.000107  0.211638  0.876734  1
  Si  Si50  1  0.787621  0.999900  0.376641  1
  Si  Si51  1  0.000109  0.787486  0.876640  1
  Si  Si52  1  0.211923  0.999902  0.376729  1
  Si  Si53  1  0.000071  0.999799  0.749944  1
  Si  Si54  1  0.999993  0.999921  0.249943  1
