# generated using pymatgen
data_SiO2
_symmetry_space_group_name_H-M   'P 1'
_cell_length_a   11.81589503
_cell_length_b   11.81660553
_cell_length_c   11.81961927
_cell_angle_alpha   90.00000000
_cell_angle_beta   90.00000000
_cell_angle_gamma   90.00000000
_symmetry_Int_Tables_number   1
_chemical_formula_structural   SiO2
_chemical_formula_sum   'Si24 O48'
_cell_volume   1650.29980958
_cell_formula_units_Z   24
loop_
 _symmetry_equiv_pos_site_id
 _symmetry_equiv_pos_as_xyz
  1  'x, y, z'
loop_
 _atom_site_type_symbol
 _atom_site_label
 _atom_site_symmetry_multiplicity
 _atom_site_fract_x
 _atom_site_fract_y
 _atom_site_fract_z
 _atom_site_occupancy
  Si  Si1  1  0.000050  0.369701  0.184212  1
  O  O2  1  0.349150  0.106089  0.106267  1
  O  O3  1  0.106250  0.349011  0.106276  1
  O  O4  1  0.650952  0.106091  0.106275  1
  O  O5  1  0.893852  0.349015  0.106273  1
  O  O6  1  0.000045  0.290477  0.290649  1
  O  O7  1  0.290612  0.290453  0.000072  1
  O  O8  1  0.500052  0.213133  0.000075  1
  O  O9  1  0.709490  0.290457  0.000075  1
  O  O10  1  0.786799  0.499896  0.000071  1
  O  O11  1  0.000051  0.499893  0.213362  1
  Si  Si12  1  0.184162  0.369700  0.000074  1
  Si  Si13  1  0.630252  0.184002  0.000077  1
  Si  Si14  1  0.815940  0.369703  0.000071  1
  O  O15  1  0.213308  0.499892  0.000077  1
  Si  Si16  1  0.369853  0.184000  0.000071  1
  O  O17  1  0.000051  0.213252  0.500071  1
  Si  Si18  1  0.000056  0.184047  0.630227  1
  O  O19  1  0.106265  0.106110  0.349271  1
  O  O20  1  0.106275  0.106116  0.650867  1
  O  O21  1  0.893829  0.106109  0.349277  1
  O  O22  1  0.893840  0.106112  0.650871  1
  Si  Si23  1  0.000047  0.184044  0.369916  1
  Si  Si24  1  0.000052  0.369703  0.815932  1
  O  O25  1  0.000054  0.290481  0.709494  1
  O  O26  1  0.349154  0.106091  0.893872  1
  O  O27  1  0.106251  0.349013  0.893872  1
  O  O28  1  0.650956  0.106092  0.893879  1
  O  O29  1  0.893852  0.349014  0.893869  1
  O  O30  1  0.000055  0.499895  0.786785  1
  O  O31  1  0.500049  0.999893  0.213338  1
  O  O32  1  0.106254  0.650775  0.106279  1
  O  O33  1  0.349151  0.893698  0.106264  1
  O  O34  1  0.650952  0.893698  0.106273  1
  O  O35  1  0.893856  0.650776  0.106274  1
  O  O36  1  0.000050  0.709306  0.290653  1
  O  O37  1  0.709495  0.709337  0.000073  1
  O  O38  1  0.290616  0.709333  0.000071  1
  Si  Si39  1  0.000053  0.630085  0.184214  1
  O  O40  1  0.709465  0.999890  0.290651  1
  O  O41  1  0.500054  0.786656  0.000069  1
  Si  Si42  1  0.369849  0.999892  0.184199  1
  O  O43  1  0.290628  0.999892  0.290639  1
  Si  Si44  1  0.630249  0.999894  0.184206  1
  Si  Si45  1  0.815944  0.630089  0.000072  1
  Si  Si46  1  0.184166  0.630086  0.000077  1
  Si  Si47  1  0.369854  0.815788  0.000067  1
  Si  Si48  1  0.630254  0.815790  0.000074  1
  Si  Si49  1  0.184205  0.999898  0.630224  1
  O  O50  1  0.000055  0.786535  0.500075  1
  O  O51  1  0.106266  0.893675  0.349274  1
  O  O52  1  0.106278  0.893679  0.650869  1
  O  O53  1  0.893842  0.893676  0.650875  1
  O  O54  1  0.893831  0.893673  0.349279  1
  O  O55  1  0.213405  0.999896  0.500067  1
  O  O56  1  0.786702  0.999891  0.500078  1
  Si  Si57  1  0.000060  0.815744  0.630230  1
  Si  Si58  1  0.000050  0.815740  0.369919  1
  Si  Si59  1  0.815911  0.999893  0.630232  1
  Si  Si60  1  0.815901  0.999890  0.369921  1
  Si  Si61  1  0.184195  0.999893  0.369913  1
  Si  Si62  1  0.000057  0.630086  0.815934  1
  O  O63  1  0.000063  0.709311  0.709498  1
  O  O64  1  0.709478  0.999895  0.709505  1
  O  O65  1  0.893857  0.650777  0.893870  1
  O  O66  1  0.106255  0.650773  0.893875  1
  O  O67  1  0.349154  0.893698  0.893868  1
  O  O68  1  0.650957  0.893701  0.893878  1
  O  O69  1  0.500058  0.999897  0.786806  1
  Si  Si70  1  0.630257  0.999897  0.815946  1
  O  O71  1  0.290642  0.999899  0.709493  1
  Si  Si72  1  0.369857  0.999896  0.815938  1
