# generated using pymatgen
data_SiO2
_symmetry_space_group_name_H-M   'P 1'
_cell_length_a   12.26364761
_cell_length_b   12.26419137
_cell_length_c   15.37087820
_cell_angle_alpha   90.00000000
_cell_angle_beta   90.00000000
_cell_angle_gamma   120.00000000
_symmetry_Int_Tables_number   1
_chemical_formula_structural   SiO2
_chemical_formula_sum   'Si36 O72'
_cell_volume   2002.10981233
_cell_formula_units_Z   36
loop_
 _symmetry_equiv_pos_site_id
 _symmetry_equiv_pos_as_xyz
  1  'x, y, z'
loop_
 _atom_site_type_symbol
 _atom_site_label
 _atom_site_symmetry_multiplicity
 _atom_site_fract_x
 _atom_site_fract_y
 _atom_site_fract_z
 _atom_site_occupancy
  O  O1  1  0.020651  0.334542  0.082639  1
  O  O2  1  0.315693  0.335038  0.082095  1
  O  O3  1  0.223601  0.445435  0.165676  1
  O  O4  1  0.020292  0.334923  0.249969  1
  O  O5  1  0.316511  0.334693  0.249436  1
  O  O6  1  0.254794  0.126575  0.004184  1
  Si  Si7  1  0.251908  0.000597  0.332744  1
  O  O8  1  0.884953  0.118755  0.321743  1
  Si  Si9  1  0.083034  0.414810  0.166198  1
  Si  Si10  1  0.333608  0.414915  0.165872  1
  O  O11  1  0.236233  0.118929  0.321527  1
  O  O12  1  0.873014  0.126690  0.004079  1
  Si  Si13  1  0.254180  0.253823  0.332859  1
  Si  Si14  1  0.750794  0.000550  0.332808  1
  Si  Si15  1  0.001863  0.253673  0.333181  1
  Si  Si16  1  0.001419  0.252161  0.000035  1
  O  O17  1  0.687001  0.017763  0.581501  1
  O  O18  1  0.686258  0.020147  0.414569  1
  O  O19  1  0.332136  0.017569  0.581695  1
  O  O20  1  0.335603  0.020004  0.414710  1
  O  O21  1  0.121454  0.240553  0.345607  1
  O  O22  1  0.117320  0.233643  0.655742  1
  O  O23  1  0.980824  0.315983  0.415570  1
  O  O24  1  0.981469  0.312456  0.582449  1
  O  O25  1  0.337975  0.316527  0.415029  1
  O  O26  1  0.331519  0.311917  0.581922  1
  O  O27  1  0.445245  0.221549  0.499750  1
  O  O28  1  0.777972  0.221809  0.499543  1
  O  O29  1  0.538122  0.074633  0.500183  1
  O  O30  1  0.924546  0.461728  0.501838  1
  O  O31  1  0.538967  0.461309  0.502805  1
  Si  Si32  1  0.918389  0.331873  0.499853  1
  Si  Si33  1  0.415070  0.331715  0.499850  1
  Si  Si34  1  0.414487  0.081035  0.499058  1
  Si  Si35  1  0.668251  0.081240  0.498837  1
  Si  Si36  1  0.999956  0.251104  0.666326  1
  Si  Si37  1  0.252152  0.251031  0.666052  1
  O  O38  1  0.016686  0.329239  0.915059  1
  O  O39  1  0.313566  0.328627  0.914544  1
  O  O40  1  0.221655  0.441966  0.834322  1
  O  O41  1  0.020268  0.335714  0.747973  1
  O  O42  1  0.316842  0.336082  0.747471  1
  Si  Si43  1  0.081673  0.412700  0.832994  1
  Si  Si44  1  0.332314  0.412615  0.832727  1
  O  O45  1  0.239001  0.118349  0.679275  1
  O  O46  1  0.880436  0.118386  0.679393  1
  O  O47  1  0.111405  0.221499  0.999799  1
  Si  Si48  1  0.252049  0.252125  0.999776  1
  O  O49  1  0.318826  0.979337  0.081655  1
  O  O50  1  0.671232  0.686568  0.084783  1
  O  O51  1  0.016808  0.686785  0.085481  1
  O  O52  1  0.662264  0.979461  0.081553  1
  O  O53  1  0.222061  0.777634  0.166141  1
  O  O54  1  0.557712  0.777758  0.166032  1
  O  O55  1  0.313160  0.981705  0.248941  1
  O  O56  1  0.665654  0.683859  0.251926  1
  O  O57  1  0.020503  0.683623  0.252556  1
  O  O58  1  0.670954  0.981865  0.248872  1
  O  O59  1  0.461246  0.920274  0.170897  1
  O  O60  1  0.078370  0.539341  0.163482  1
  O  O61  1  0.462842  0.539423  0.163446  1
  O  O62  1  0.881846  0.761660  0.322023  1
  Si  Si63  1  0.586836  0.917719  0.167092  1
  Si  Si64  1  0.081581  0.667792  0.167485  1
  Si  Si65  1  0.332969  0.917587  0.167080  1
  Si  Si66  1  0.588171  0.667817  0.167126  1
  O  O67  1  0.113266  0.889028  0.000769  1
  O  O68  1  0.777323  0.889082  0.000373  1
  Si  Si69  1  0.002285  0.749033  0.000478  1
  Si  Si70  1  0.253725  0.999067  0.000141  1
  O  O71  1  0.981039  0.665942  0.585014  1
  O  O72  1  0.778538  0.555375  0.500976  1
  O  O73  1  0.118549  0.881884  0.345519  1
  O  O74  1  0.765032  0.881589  0.345603  1
  O  O75  1  0.118095  0.881474  0.656135  1
  O  O76  1  0.764696  0.881612  0.656054  1
  Si  Si77  1  0.918886  0.585714  0.501409  1
  O  O78  1  0.685855  0.665559  0.417390  1
  Si  Si79  1  0.668427  0.585573  0.501122  1
  O  O80  1  0.686817  0.666676  0.584290  1
  O  O81  1  0.981899  0.666425  0.418079  1
  Si  Si82  1  0.748529  0.747230  0.334373  1
  Si  Si83  1  0.000781  0.747397  0.334692  1
  Si  Si84  1  0.747581  0.999246  0.665806  1
  Si  Si85  1  0.252800  0.999216  0.665872  1
  O  O86  1  0.313911  0.984142  0.914279  1
  O  O87  1  0.666637  0.685441  0.917115  1
  O  O88  1  0.020560  0.685171  0.917830  1
  O  O89  1  0.671461  0.984081  0.914090  1
  O  O90  1  0.223257  0.778122  0.834614  1
  O  O91  1  0.556023  0.778010  0.834477  1
  O  O92  1  0.317639  0.979130  0.747289  1
  O  O93  1  0.664278  0.683640  0.749807  1
  O  O94  1  0.020291  0.684010  0.750496  1
  O  O95  1  0.662400  0.978975  0.747109  1
  O  O96  1  0.461698  0.922249  0.837908  1
  O  O97  1  0.079758  0.538656  0.837152  1
  O  O98  1  0.460173  0.538572  0.837260  1
  Si  Si99  1  0.333083  0.918657  0.832832  1
  Si  Si100  1  0.585370  0.667254  0.833963  1
  Si  Si101  1  0.083194  0.667318  0.834320  1
  Si  Si102  1  0.586644  0.918523  0.832713  1
  O  O103  1  0.875281  0.748955  0.996643  1
  O  O104  1  0.881508  0.761898  0.680803  1
  Si  Si105  1  0.748238  0.747386  0.667799  1
  Si  Si106  1  0.000289  0.747323  0.668173  1
  Si  Si107  1  0.748365  0.749097  0.999967  1
  Si  Si108  1  0.746767  0.999038  0.999862  1
