# generated using pymatgen
data_SiO2
_symmetry_space_group_name_H-M   'P 1'
_cell_length_a   9.18436265
_cell_length_b   9.18649954
_cell_length_c   9.99498220
_cell_angle_alpha   90.00000000
_cell_angle_beta   90.00000000
_cell_angle_gamma   90.00000000
_symmetry_Int_Tables_number   1
_chemical_formula_structural   SiO2
_chemical_formula_sum   'Si16 O32'
_cell_volume   843.29807083
_cell_formula_units_Z   16
loop_
 _symmetry_equiv_pos_site_id
 _symmetry_equiv_pos_as_xyz
  1  'x, y, z'
loop_
 _atom_site_type_symbol
 _atom_site_label
 _atom_site_symmetry_multiplicity
 _atom_site_fract_x
 _atom_site_fract_y
 _atom_site_fract_z
 _atom_site_occupancy
  O  O1  1  0.242756  0.514440  0.154938  1
  O  O2  1  0.757187  0.485253  0.654938  1
  O  O3  1  0.985068  0.742850  0.404745  1
  O  O4  1  0.014871  0.256842  0.904749  1
  O  O5  1  0.257185  0.014442  0.094918  1
  O  O6  1  0.742757  0.985249  0.594916  1
  O  O7  1  0.514874  0.242851  0.845104  1
  O  O8  1  0.485070  0.756841  0.345104  1
  O  O9  1  0.440949  0.440761  0.000115  1
  O  O10  1  0.558993  0.558928  0.500116  1
  O  O11  1  0.058994  0.940763  0.249738  1
  O  O12  1  0.940946  0.058931  0.749739  1
  O  O13  1  0.367518  0.259124  0.176250  1
  O  O14  1  0.632423  0.740564  0.676252  1
  O  O15  1  0.240420  0.867518  0.426161  1
  O  O16  1  0.759525  0.132176  0.926162  1
  O  O17  1  0.132426  0.759125  0.073603  1
  O  O18  1  0.867518  0.240565  0.573604  1
  O  O19  1  0.259526  0.367520  0.823690  1
  O  O20  1  0.740418  0.632173  0.323694  1
  O  O21  1  0.503091  0.496424  0.250174  1
  O  O22  1  0.496856  0.503264  0.750174  1
  O  O23  1  0.003085  0.003267  0.499681  1
  O  O24  1  0.996854  0.996425  0.999681  1
  O  O25  1  0.429244  0.017009  0.294895  1
  O  O26  1  0.570697  0.982684  0.794891  1
  O  O27  1  0.482585  0.929091  0.544921  1
  O  O28  1  0.517363  0.070599  0.044924  1
  O  O29  1  0.070697  0.517005  0.954962  1
  O  O30  1  0.929243  0.482685  0.454962  1
  O  O31  1  0.017360  0.429093  0.704932  1
  O  O32  1  0.982583  0.570602  0.204932  1
  Si  Si33  1  0.390110  0.427427  0.150863  1
  Si  Si34  1  0.609830  0.572263  0.650863  1
  Si  Si35  1  0.072132  0.890140  0.400558  1
  Si  Si36  1  0.927812  0.109546  0.900557  1
  Si  Si37  1  0.109834  0.927427  0.098991  1
  Si  Si38  1  0.890113  0.072263  0.598994  1
  Si  Si39  1  0.427811  0.390142  0.849297  1
  Si  Si40  1  0.572132  0.609548  0.349298  1
  Si  Si41  1  0.395851  0.091049  0.155433  1
  Si  Si42  1  0.604093  0.908642  0.655435  1
  Si  Si43  1  0.408576  0.895622  0.405455  1
  Si  Si44  1  0.591368  0.104069  0.905457  1
  Si  Si45  1  0.104093  0.591048  0.094420  1
  Si  Si46  1  0.895852  0.408641  0.594421  1
  Si  Si47  1  0.091369  0.395621  0.844397  1
  Si  Si48  1  0.908577  0.604068  0.344398  1
