# generated using pymatgen
data_SiO2
_symmetry_space_group_name_H-M   'P 1'
_cell_length_a   31.00653728
_cell_length_b   31.01620412
_cell_length_c   7.57128859
_cell_angle_alpha   90.00000000
_cell_angle_beta   90.00000000
_cell_angle_gamma   120.00000000
_symmetry_Int_Tables_number   1
_chemical_formula_structural   SiO2
_chemical_formula_sum   'Si108 O216'
_cell_volume   6305.83127878
_cell_formula_units_Z   108
loop_
 _symmetry_equiv_pos_site_id
 _symmetry_equiv_pos_as_xyz
  1  'x, y, z'
loop_
 _atom_site_type_symbol
 _atom_site_label
 _atom_site_symmetry_multiplicity
 _atom_site_fract_x
 _atom_site_fract_y
 _atom_site_fract_z
 _atom_site_occupancy
  O  O1  1  0.000204  0.410882  0.500044  1
  O  O2  1  0.589281  0.589071  0.500118  1
  O  O3  1  0.411252  0.999997  0.500143  1
  O  O4  1  0.000349  0.589136  0.000038  1
  O  O5  1  0.411219  0.410837  0.000138  1
  O  O6  1  0.589901  0.999968  0.000135  1
  O  O7  1  0.411267  0.999993  0.000131  1
  O  O8  1  0.589287  0.589074  0.000111  1
  O  O9  1  0.000205  0.410877  0.000039  1
  O  O10  1  0.589945  0.999971  0.500144  1
  O  O11  1  0.411225  0.410831  0.500056  1
  O  O12  1  0.000364  0.589144  0.500085  1
  O  O13  1  0.096522  0.482340  0.476418  1
  O  O14  1  0.517990  0.614085  0.476461  1
  O  O15  1  0.386462  0.903768  0.476563  1
  O  O16  1  0.904010  0.517658  0.976418  1
  O  O17  1  0.482517  0.385843  0.976444  1
  O  O18  1  0.614565  0.096121  0.976388  1
  O  O19  1  0.482677  0.096233  0.976374  1
  O  O20  1  0.614131  0.517611  0.976498  1
  O  O21  1  0.903907  0.385910  0.976385  1
  O  O22  1  0.518463  0.903825  0.476603  1
  O  O23  1  0.386392  0.482333  0.476491  1
  O  O24  1  0.096659  0.614119  0.476381  1
  O  O25  1  0.904022  0.517653  0.523669  1
  O  O26  1  0.482517  0.385834  0.523794  1
  O  O27  1  0.614581  0.096111  0.523666  1
  O  O28  1  0.096521  0.482334  0.023661  1
  O  O29  1  0.517988  0.614068  0.023782  1
  O  O30  1  0.386462  0.903758  0.023892  1
  O  O31  1  0.518436  0.903808  0.023900  1
  O  O32  1  0.386374  0.482326  0.023734  1
  O  O33  1  0.096648  0.614107  0.023707  1
  O  O34  1  0.482668  0.096229  0.523716  1
  O  O35  1  0.614128  0.517607  0.523731  1
  O  O36  1  0.903897  0.385897  0.523694  1
  O  O37  1  0.072394  0.396403  0.581095  1
  O  O38  1  0.603986  0.675827  0.581216  1
  O  O39  1  0.324575  0.927805  0.581297  1
  O  O40  1  0.928135  0.603569  0.081093  1
  O  O41  1  0.396597  0.324081  0.081226  1
  O  O42  1  0.676553  0.072177  0.081230  1
  O  O43  1  0.396728  0.072139  0.081165  1
  O  O44  1  0.675955  0.603547  0.081189  1
  O  O45  1  0.928115  0.324139  0.081136  1
  O  O46  1  0.604405  0.927774  0.581265  1
  O  O47  1  0.324593  0.396421  0.581174  1
  O  O48  1  0.072525  0.675895  0.581156  1
  O  O49  1  0.928149  0.603566  0.418974  1
  O  O50  1  0.396596  0.324067  0.419002  1
  O  O51  1  0.676600  0.072200  0.419027  1
  O  O52  1  0.072393  0.396396  0.918959  1
  O  O53  1  0.603982  0.675827  0.919015  1
  O  O54  1  0.324586  0.927815  0.919118  1
  O  O55  1  0.604386  0.927793  0.919051  1
  O  O56  1  0.324577  0.396417  0.919063  1
  O  O57  1  0.072511  0.675878  0.918932  1
  O  O58  1  0.396723  0.072153  0.418980  1
  O  O59  1  0.675948  0.603542  0.419058  1
  O  O60  1  0.928120  0.324141  0.418945  1
  O  O61  1  0.057097  0.413165  0.250036  1
  O  O62  1  0.587190  0.643780  0.250116  1
  O  O63  1  0.356632  0.943126  0.250188  1
  O  O64  1  0.943442  0.586824  0.750035  1
  O  O65  1  0.413311  0.356127  0.750111  1
  O  O66  1  0.644546  0.056865  0.750130  1
  O  O67  1  0.413469  0.056847  0.750090  1
  O  O68  1  0.643884  0.586779  0.750116  1
  O  O69  1  0.943373  0.356185  0.750041  1
  O  O70  1  0.587684  0.943099  0.250154  1
  O  O71  1  0.356631  0.413165  0.250119  1
  O  O72  1  0.057183  0.643837  0.250047  1
  O  O73  1  0.185327  0.514928  0.582175  1
  O  O74  1  0.485372  0.670221  0.582248  1
  O  O75  1  0.330375  0.815004  0.582405  1
  O  O76  1  0.815202  0.485093  0.082183  1
  O  O77  1  0.515191  0.329721  0.082286  1
  O  O78  1  0.670596  0.184843  0.082042  1
  O  O79  1  0.515366  0.184989  0.082157  1
  O  O80  1  0.670382  0.485071  0.082232  1
  O  O81  1  0.815145  0.329784  0.082190  1
  O  O82  1  0.485704  0.815102  0.582471  1
  O  O83  1  0.330111  0.514851  0.582236  1
  O  O84  1  0.185470  0.670246  0.582179  1
  O  O85  1  0.815211  0.485086  0.417917  1
  O  O86  1  0.515183  0.329705  0.417977  1
  O  O87  1  0.670577  0.184835  0.417818  1
  O  O88  1  0.185325  0.514922  0.917918  1
  O  O89  1  0.485369  0.670195  0.917965  1
  O  O90  1  0.330367  0.814998  0.918127  1
  O  O91  1  0.485714  0.815087  0.918233  1
  O  O92  1  0.330094  0.514843  0.917973  1
  O  O93  1  0.185457  0.670224  0.917883  1
  O  O94  1  0.515370  0.184989  0.417863  1
  O  O95  1  0.670378  0.485065  0.417982  1
  O  O96  1  0.815130  0.329765  0.417917  1
  O  O97  1  0.249005  0.497471  0.750041  1
  O  O98  1  0.502887  0.751305  0.750256  1
  O  O99  1  0.249233  0.751295  0.750189  1
  O  O100  1  0.751499  0.502490  0.250112  1
  O  O101  1  0.497894  0.248660  0.250031  1
  O  O102  1  0.751545  0.248666  0.249965  1
  O  O103  1  0.153941  0.434446  0.750030  1
  O  O104  1  0.565930  0.719298  0.750122  1
  O  O105  1  0.281145  0.846295  0.750251  1
  O  O106  1  0.846581  0.565574  0.250083  1
  O  O107  1  0.434694  0.280572  0.250086  1
  O  O108  1  0.719969  0.153692  0.250000  1
  O  O109  1  0.434829  0.153660  0.250020  1
  O  O110  1  0.719490  0.565544  0.250123  1
  O  O111  1  0.846591  0.280683  0.250045  1
  O  O112  1  0.566255  0.846277  0.750274  1
  O  O113  1  0.280980  0.434365  0.750071  1
  O  O114  1  0.154123  0.719377  0.750083  1
  O  O115  1  0.164872  0.526509  0.250047  1
  O  O116  1  0.473763  0.638190  0.250103  1
  O  O117  1  0.362431  0.835457  0.250276  1
  O  O118  1  0.835654  0.473498  0.750040  1
  O  O119  1  0.526737  0.361727  0.750126  1
  O  O120  1  0.638543  0.164391  0.749946  1
  O  O121  1  0.526970  0.164536  0.749999  1
  O  O122  1  0.638341  0.473477  0.750108  1
  O  O123  1  0.835555  0.361798  0.750055  1
  O  O124  1  0.474116  0.835541  0.250334  1
  O  O125  1  0.362144  0.526447  0.250116  1
  O  O126  1  0.164991  0.638216  0.250036  1
  O  O127  1  0.154645  0.577228  0.497119  1
  O  O128  1  0.423093  0.577204  0.497182  1
  O  O129  1  0.423466  0.845889  0.497445  1
  O  O130  1  0.845886  0.422790  0.997132  1
  O  O131  1  0.577398  0.422731  0.997180  1
  O  O132  1  0.577568  0.154106  0.997101  1
  O  O133  1  0.845882  0.422777  0.502964  1
  O  O134  1  0.577396  0.422725  0.503051  1
  O  O135  1  0.577556  0.154080  0.502833  1
  O  O136  1  0.154639  0.577219  0.002970  1
  O  O137  1  0.423084  0.577188  0.003038  1
  O  O138  1  0.423450  0.845859  0.003176  1
  O  O139  1  0.000590  0.168208  0.500023  1
  O  O140  1  0.832411  0.831797  0.500122  1
  O  O141  1  0.168340  0.999969  0.500086  1
  O  O142  1  0.000350  0.831916  0.000184  1
  O  O143  1  0.168366  0.168007  0.999960  1
  O  O144  1  0.832883  0.999996  0.000091  1
  O  O145  1  0.168281  0.999971  0.000082  1
  O  O146  1  0.832396  0.831786  0.000145  1
  O  O147  1  0.000584  0.168219  0.000007  1
  O  O148  1  0.832887  0.999994  0.500076  1
  O  O149  1  0.168370  0.167984  0.500061  1
  O  O150  1  0.000379  0.831939  0.500096  1
  O  O151  1  0.057144  0.222860  0.250018  1
  O  O152  1  0.777823  0.833837  0.250143  1
  O  O153  1  0.166415  0.943439  0.250052  1
  O  O154  1  0.943837  0.777261  0.750083  1
  O  O155  1  0.222951  0.165958  0.750019  1
  O  O156  1  0.834730  0.056501  0.750056  1
  O  O157  1  0.222937  0.056528  0.750113  1
  O  O158  1  0.834274  0.777135  0.750124  1
  O  O159  1  0.943960  0.166170  0.750008  1
  O  O160  1  0.778231  0.943461  0.250106  1
  O  O161  1  0.166551  0.222674  0.250060  1
  O  O162  1  0.056985  0.833962  0.250135  1
  O  O163  1  0.097775  0.194683  0.479175  1
  O  O164  1  0.806127  0.902633  0.479348  1
  O  O165  1  0.097649  0.902736  0.479292  1
  O  O166  1  0.903070  0.805264  0.979260  1
  O  O167  1  0.194813  0.097202  0.979238  1
  O  O168  1  0.903465  0.097372  0.979245  1
  O  O169  1  0.903089  0.805283  0.520970  1
  O  O170  1  0.194839  0.097189  0.520862  1
  O  O171  1  0.903466  0.097369  0.520817  1
  O  O172  1  0.097774  0.194700  0.020884  1
  O  O173  1  0.806129  0.902633  0.020908  1
  O  O174  1  0.097607  0.902724  0.020932  1
  O  O175  1  0.070435  0.255337  0.580628  1
  O  O176  1  0.745317  0.814644  0.580754  1
  O  O177  1  0.185659  0.930136  0.580664  1
  O  O178  1  0.930458  0.744740  0.080697  1
  O  O179  1  0.255455  0.185136  0.080616  1
  O  O180  1  0.815482  0.069782  0.080648  1
  O  O181  1  0.255430  0.069816  0.080707  1
  O  O182  1  0.815060  0.744643  0.080749  1
  O  O183  1  0.930628  0.185355  0.080603  1
  O  O184  1  0.745698  0.930184  0.580697  1
  O  O185  1  0.185710  0.255175  0.580684  1
  O  O186  1  0.070332  0.814804  0.580735  1
  O  O187  1  0.930482  0.744764  0.419456  1
  O  O188  1  0.255463  0.185124  0.419425  1
  O  O189  1  0.815472  0.069769  0.419464  1
  O  O190  1  0.070435  0.255349  0.919389  1
  O  O191  1  0.745301  0.814650  0.919554  1
  O  O192  1  0.185627  0.930167  0.919457  1
  O  O193  1  0.745703  0.930173  0.919516  1
  O  O194  1  0.185708  0.255197  0.919447  1
  O  O195  1  0.070311  0.814793  0.919534  1
  O  O196  1  0.255486  0.069846  0.419505  1
  O  O197  1  0.815073  0.744657  0.419517  1
  O  O198  1  0.930651  0.185359  0.419395  1
  O  O199  1  0.092838  0.337315  0.749971  1
  O  O200  1  0.663152  0.755306  0.750120  1
  O  O201  1  0.245133  0.907537  0.750255  1
  O  O202  1  0.907923  0.662745  0.250101  1
  O  O203  1  0.337505  0.244610  0.250035  1
  O  O204  1  0.755984  0.092389  0.249985  1
  O  O205  1  0.337563  0.092438  0.249968  1
  O  O206  1  0.755467  0.662674  0.250178  1
  O  O207  1  0.907789  0.244662  0.250044  1
  O  O208  1  0.663588  0.907563  0.750238  1
  O  O209  1  0.245201  0.337196  0.750050  1
  O  O210  1  0.092922  0.755357  0.750131  1
  O  O211  1  0.150854  0.300835  0.749994  1
  O  O212  1  0.700013  0.849739  0.750067  1
  O  O213  1  0.150772  0.849741  0.750197  1
  O  O214  1  0.849955  0.699130  0.250150  1
  O  O215  1  0.301003  0.150238  0.249969  1
  O  O216  1  0.850240  0.150220  0.250097  1
  Si  Si217  1  0.055750  0.425485  0.452653  1
  Si  Si218  1  0.574843  0.630124  0.452736  1
  Si  Si219  1  0.370300  0.944476  0.452810  1
  Si  Si220  1  0.944798  0.574509  0.952649  1
  Si  Si221  1  0.425662  0.369790  0.952726  1
  Si  Si222  1  0.630831  0.055484  0.952728  1
  Si  Si223  1  0.425804  0.055497  0.952695  1
  Si  Si224  1  0.630221  0.574465  0.952740  1
  Si  Si225  1  0.944697  0.369844  0.952661  1
  Si  Si226  1  0.575372  0.944463  0.452783  1
  Si  Si227  1  0.370320  0.425482  0.452723  1
  Si  Si228  1  0.055868  0.630182  0.452668  1
  Si  Si229  1  0.944808  0.574506  0.547430  1
  Si  Si230  1  0.425661  0.369780  0.547491  1
  Si  Si231  1  0.630867  0.055491  0.547499  1
  Si  Si232  1  0.055750  0.425478  0.047412  1
  Si  Si233  1  0.574845  0.630123  0.047496  1
  Si  Si234  1  0.370315  0.944479  0.047579  1
  Si  Si235  1  0.575343  0.944464  0.047556  1
  Si  Si236  1  0.370307  0.425477  0.047505  1
  Si  Si237  1  0.055857  0.630170  0.047434  1
  Si  Si238  1  0.425793  0.055506  0.547469  1
  Si  Si239  1  0.630214  0.574460  0.547498  1
  Si  Si240  1  0.944696  0.369845  0.547421  1
  Si  Si241  1  0.152269  0.526400  0.453128  1
  Si  Si242  1  0.473892  0.625708  0.453179  1
  Si  Si243  1  0.374902  0.848081  0.453362  1
  Si  Si244  1  0.848253  0.473614  0.953132  1
  Si  Si245  1  0.526611  0.374214  0.953202  1
  Si  Si246  1  0.626066  0.151788  0.953036  1
  Si  Si247  1  0.526811  0.151918  0.953092  1
  Si  Si248  1  0.625843  0.473576  0.953192  1
  Si  Si249  1  0.848183  0.374295  0.953117  1
  Si  Si250  1  0.474263  0.848164  0.453409  1
  Si  Si251  1  0.374651  0.526352  0.453198  1
  Si  Si252  1  0.152383  0.625741  0.453122  1
  Si  Si253  1  0.848264  0.473609  0.546959  1
  Si  Si254  1  0.526610  0.374206  0.547042  1
  Si  Si255  1  0.626062  0.151775  0.546868  1
  Si  Si256  1  0.152267  0.526394  0.046964  1
  Si  Si257  1  0.473887  0.625688  0.047044  1
  Si  Si258  1  0.374893  0.848071  0.047181  1
  Si  Si259  1  0.474251  0.848145  0.047245  1
  Si  Si260  1  0.374634  0.526344  0.047022  1
  Si  Si261  1  0.152372  0.625729  0.046962  1
  Si  Si262  1  0.526811  0.151913  0.546912  1
  Si  Si263  1  0.625841  0.473572  0.547026  1
  Si  Si264  1  0.848173  0.374280  0.546982  1
  Si  Si265  1  0.055984  0.209693  0.453000  1
  Si  Si266  1  0.790995  0.845809  0.453133  1
  Si  Si267  1  0.154434  0.944580  0.453068  1
  Si  Si268  1  0.944963  0.790399  0.953079  1
  Si  Si269  1  0.209779  0.153979  0.953003  1
  Si  Si270  1  0.846742  0.055382  0.953052  1
  Si  Si271  1  0.209764  0.055372  0.953088  1
  Si  Si272  1  0.846273  0.790286  0.953117  1
  Si  Si273  1  0.945153  0.154202  0.953004  1
  Si  Si274  1  0.791366  0.944593  0.453104  1
  Si  Si275  1  0.154531  0.209522  0.453044  1
  Si  Si276  1  0.055820  0.845957  0.453118  1
  Si  Si277  1  0.944984  0.790418  0.547100  1
  Si  Si278  1  0.209788  0.153964  0.547035  1
  Si  Si279  1  0.846744  0.055383  0.547061  1
  Si  Si280  1  0.055979  0.209705  0.047025  1
  Si  Si281  1  0.790988  0.845807  0.047147  1
  Si  Si282  1  0.154388  0.944582  0.047081  1
  Si  Si283  1  0.791370  0.944596  0.047111  1
  Si  Si284  1  0.154529  0.209539  0.047064  1
  Si  Si285  1  0.055793  0.845942  0.047153  1
  Si  Si286  1  0.209806  0.055372  0.547097  1
  Si  Si287  1  0.846291  0.790299  0.547144  1
  Si  Si288  1  0.945160  0.154198  0.547020  1
  Si  Si289  1  0.195621  0.491225  0.750040  1
  Si  Si290  1  0.509130  0.704190  0.750141  1
  Si  Si291  1  0.296351  0.804685  0.750254  1
  Si  Si292  1  0.804902  0.508785  0.250072  1
  Si  Si293  1  0.491502  0.295702  0.250109  1
  Si  Si294  1  0.704594  0.195187  0.249953  1
  Si  Si295  1  0.491649  0.195288  0.250015  1
  Si  Si296  1  0.704381  0.508765  0.250113  1
  Si  Si297  1  0.804908  0.295795  0.250028  1
  Si  Si298  1  0.509382  0.804764  0.750320  1
  Si  Si299  1  0.296097  0.491154  0.750081  1
  Si  Si300  1  0.195793  0.704243  0.750064  1
  Si  Si301  1  0.098398  0.390052  0.750019  1
  Si  Si302  1  0.610354  0.708190  0.750115  1
  Si  Si303  1  0.292226  0.901808  0.750226  1
  Si  Si304  1  0.902155  0.609929  0.250058  1
  Si  Si305  1  0.390292  0.291728  0.250092  1
  Si  Si306  1  0.708933  0.098187  0.250065  1
  Si  Si307  1  0.390380  0.098150  0.250043  1
  Si  Si308  1  0.708310  0.609912  0.250132  1
  Si  Si309  1  0.902121  0.291778  0.250044  1
  Si  Si310  1  0.610743  0.901780  0.750209  1
  Si  Si311  1  0.292229  0.390037  0.750095  1
  Si  Si312  1  0.098567  0.708233  0.750069  1
  Si  Si313  1  0.095081  0.288278  0.749994  1
  Si  Si314  1  0.712388  0.806427  0.750128  1
  Si  Si315  1  0.193937  0.905508  0.750142  1
  Si  Si316  1  0.905775  0.711825  0.250111  1
  Si  Si317  1  0.288390  0.193395  0.250004  1
  Si  Si318  1  0.807177  0.094415  0.250062  1
  Si  Si319  1  0.288400  0.094474  0.250033  1
  Si  Si320  1  0.806760  0.711712  0.250150  1
  Si  Si321  1  0.905926  0.193559  0.250029  1
  Si  Si322  1  0.712755  0.905539  0.750111  1
  Si  Si323  1  0.193958  0.288115  0.750033  1
  Si  Si324  1  0.095003  0.806556  0.750154  1
