# generated using pymatgen
data_SiO2
_symmetry_space_group_name_H-M   'P 1'
_cell_length_a   13.70242860
_cell_length_b   13.45272795
_cell_length_c   7.63839237
_cell_angle_alpha   90.00000000
_cell_angle_beta   111.15900000
_cell_angle_gamma   90.00000000
_symmetry_Int_Tables_number   1
_chemical_formula_structural   SiO2
_chemical_formula_sum   'Si24 O48'
_cell_volume   1313.09774629
_cell_formula_units_Z   24
loop_
 _symmetry_equiv_pos_site_id
 _symmetry_equiv_pos_as_xyz
  1  'x, y, z'
loop_
 _atom_site_type_symbol
 _atom_site_label
 _atom_site_symmetry_multiplicity
 _atom_site_fract_x
 _atom_site_fract_y
 _atom_site_fract_z
 _atom_site_occupancy
  O  O1  1  0.312173  0.364963  0.222379  1
  O  O2  1  0.812171  0.864965  0.222376  1
  O  O3  1  0.687962  0.364964  0.777868  1
  O  O4  1  0.187959  0.864963  0.777867  1
  O  O5  1  0.687959  0.634841  0.777867  1
  O  O6  1  0.187962  0.134840  0.777869  1
  O  O7  1  0.312172  0.634839  0.222375  1
  O  O8  1  0.812173  0.134841  0.222378  1
  O  O9  1  0.209102  0.499900  0.315869  1
  O  O10  1  0.709102  0.999904  0.315869  1
  O  O11  1  0.791032  0.499903  0.684375  1
  O  O12  1  0.291031  0.999901  0.684375  1
  O  O13  1  0.153569  0.302520  0.287348  1
  O  O14  1  0.653565  0.802522  0.287345  1
  O  O15  1  0.846568  0.302521  0.712899  1
  O  O16  1  0.346565  0.802519  0.712897  1
  O  O17  1  0.846565  0.697285  0.712897  1
  O  O18  1  0.346567  0.197282  0.712899  1
  O  O19  1  0.153565  0.697282  0.287345  1
  O  O20  1  0.653568  0.197285  0.287348  1
  O  O21  1  0.311047  0.367970  0.552261  1
  O  O22  1  0.811045  0.867972  0.552260  1
  O  O23  1  0.689088  0.367972  0.447985  1
  O  O24  1  0.189085  0.867970  0.447982  1
  O  O25  1  0.689084  0.631834  0.447981  1
  O  O26  1  0.189088  0.131833  0.447984  1
  O  O27  1  0.311045  0.631832  0.552260  1
  O  O28  1  0.811048  0.131834  0.552261  1
  O  O29  1  0.358284  0.353094  0.913726  1
  O  O30  1  0.858282  0.853096  0.913723  1
  O  O31  1  0.641852  0.353096  0.086522  1
  O  O32  1  0.141849  0.853094  0.086520  1
  O  O33  1  0.641849  0.646710  0.086518  1
  O  O34  1  0.141851  0.146708  0.086519  1
  O  O35  1  0.358282  0.646708  0.913724  1
  O  O36  1  0.858284  0.146710  0.913727  1
  O  O37  1  0.497811  0.330998  0.770900  1
  O  O38  1  0.997808  0.830999  0.770896  1
  O  O39  1  0.502325  0.330999  0.229348  1
  O  O40  1  0.002322  0.830997  0.229345  1
  O  O41  1  0.502321  0.668806  0.229345  1
  O  O42  1  0.002324  0.168805  0.229347  1
  O  O43  1  0.497809  0.668805  0.770897  1
  O  O44  1  0.997811  0.168806  0.770900  1
  O  O45  1  0.415833  0.499902  0.139497  1
  O  O46  1  0.915833  0.999902  0.139497  1
  O  O47  1  0.584300  0.499902  0.860747  1
  O  O48  1  0.084300  0.999901  0.860747  1
  Si  Si49  1  0.241032  0.385847  0.340812  1
  Si  Si50  1  0.741028  0.885847  0.340808  1
  Si  Si51  1  0.759103  0.385851  0.659436  1
  Si  Si52  1  0.259102  0.885847  0.659434  1
  Si  Si53  1  0.759103  0.613957  0.659435  1
  Si  Si54  1  0.259105  0.113954  0.659437  1
  Si  Si55  1  0.241027  0.613957  0.340808  1
  Si  Si56  1  0.741032  0.113957  0.340811  1
  Si  Si57  1  0.378522  0.311393  0.735900  1
  Si  Si58  1  0.878516  0.811394  0.735895  1
  Si  Si59  1  0.621614  0.311396  0.264347  1
  Si  Si60  1  0.121614  0.811391  0.264347  1
  Si  Si61  1  0.621615  0.688413  0.264349  1
  Si  Si62  1  0.121614  0.188408  0.264347  1
  Si  Si63  1  0.378517  0.688410  0.735896  1
  Si  Si64  1  0.878522  0.188410  0.735901  1
  Si  Si65  1  0.394191  0.385066  0.126590  1
  Si  Si66  1  0.894187  0.885068  0.126589  1
  Si  Si67  1  0.605944  0.385067  0.873655  1
  Si  Si68  1  0.105944  0.885067  0.873653  1
  Si  Si69  1  0.605944  0.614738  0.873654  1
  Si  Si70  1  0.105944  0.114738  0.873656  1
  Si  Si71  1  0.394187  0.614737  0.126589  1
  Si  Si72  1  0.894191  0.114738  0.126590  1
