# generated using pymatgen
data_SiO2
_symmetry_space_group_name_H-M   'P 1'
_cell_length_a   18.17513615
_cell_length_b   18.16750812
_cell_length_c   7.56987855
_cell_angle_alpha   90.00000000
_cell_angle_beta   90.00000000
_cell_angle_gamma   120.00000000
_symmetry_Int_Tables_number   1
_chemical_formula_structural   SiO2
_chemical_formula_sum   'Si36 O72'
_cell_volume   2164.67439097
_cell_formula_units_Z   36
loop_
 _symmetry_equiv_pos_site_id
 _symmetry_equiv_pos_as_xyz
  1  'x, y, z'
loop_
 _atom_site_type_symbol
 _atom_site_label
 _atom_site_symmetry_multiplicity
 _atom_site_fract_x
 _atom_site_fract_y
 _atom_site_fract_z
 _atom_site_occupancy
  O  O1  1  0.255847  0.519352  0.221791  1
  O  O2  1  0.476603  0.740101  0.221791  1
  O  O3  1  0.255845  0.740038  0.221798  1
  O  O4  1  0.736485  0.480422  0.221791  1
  O  O5  1  0.515780  0.259725  0.221803  1
  O  O6  1  0.736486  0.259684  0.221786  1
  O  O7  1  0.736485  0.480422  0.778532  1
  O  O8  1  0.515780  0.259725  0.778519  1
  O  O9  1  0.736486  0.259684  0.778537  1
  O  O10  1  0.255847  0.519352  0.778532  1
  O  O11  1  0.476603  0.740101  0.778532  1
  O  O12  1  0.255845  0.740038  0.778524  1
  O  O13  1  0.108026  0.420705  0.333045  1
  O  O14  1  0.575130  0.690745  0.333047  1
  O  O15  1  0.305184  0.887956  0.333037  1
  O  O16  1  0.884315  0.579012  0.333045  1
  O  O17  1  0.417239  0.309053  0.333047  1
  O  O18  1  0.687143  0.111786  0.333043  1
  O  O19  1  0.575123  0.887989  0.333049  1
  O  O20  1  0.305161  0.420780  0.333040  1
  O  O21  1  0.108023  0.690807  0.333046  1
  O  O22  1  0.417235  0.111817  0.333044  1
  O  O23  1  0.687236  0.579050  0.333040  1
  O  O24  1  0.884322  0.308942  0.333046  1
  O  O25  1  0.884315  0.579012  0.667278  1
  O  O26  1  0.417239  0.309053  0.667275  1
  O  O27  1  0.687143  0.111786  0.667280  1
  O  O28  1  0.108026  0.420705  0.667277  1
  O  O29  1  0.575130  0.690745  0.667276  1
  O  O30  1  0.305184  0.887956  0.667285  1
  O  O31  1  0.417235  0.111817  0.667279  1
  O  O32  1  0.687236  0.579050  0.667282  1
  O  O33  1  0.884322  0.308942  0.667277  1
  O  O34  1  0.575123  0.887989  0.667273  1
  O  O35  1  0.305161  0.420780  0.667283  1
  O  O36  1  0.108023  0.690807  0.667276  1
  O  O37  1  0.153866  0.578685  0.246065  1
  O  O38  1  0.417168  0.578757  0.246069  1
  O  O39  1  0.417167  0.842000  0.246068  1
  O  O40  1  0.838421  0.421023  0.246073  1
  O  O41  1  0.575186  0.421083  0.246062  1
  O  O42  1  0.575169  0.157774  0.246069  1
  O  O43  1  0.838421  0.421023  0.754250  1
  O  O44  1  0.575186  0.421083  0.754261  1
  O  O45  1  0.575169  0.157774  0.754254  1
  O  O46  1  0.153867  0.578685  0.754257  1
  O  O47  1  0.417168  0.578757  0.754253  1
  O  O48  1  0.417167  0.842000  0.754254  1
  O  O49  1  0.137339  0.474743  0.000161  1
  O  O50  1  0.521111  0.666089  0.000161  1
  O  O51  1  0.329826  0.858573  0.000161  1
  O  O52  1  0.854980  0.524969  0.000161  1
  O  O53  1  0.471258  0.333725  0.000161  1
  O  O54  1  0.662478  0.141146  0.000162  1
  O  O55  1  0.521104  0.858641  0.000161  1
  O  O56  1  0.329819  0.474815  0.000161  1
  O  O57  1  0.137340  0.666092  0.000161  1
  O  O58  1  0.471254  0.141187  0.000161  1
  O  O59  1  0.662562  0.525020  0.000161  1
  O  O60  1  0.854990  0.333641  0.000162  1
  O  O61  1  0.996148  0.289832  0.500161  1
  O  O62  1  0.706090  0.709881  0.500161  1
  O  O63  1  0.286316  0.999936  0.500161  1
  O  O64  1  0.996204  0.709899  0.500161  1
  O  O65  1  0.286305  0.289936  0.500161  1
  O  O66  1  0.706052  0.999837  0.500161  1
  O  O67  1  0.164485  0.336435  0.500161  1
  O  O68  1  0.659353  0.831484  0.500161  1
  O  O69  1  0.164519  0.831571  0.500161  1
  O  O70  1  0.827908  0.663339  0.500161  1
  O  O71  1  0.333008  0.168301  0.500161  1
  O  O72  1  0.827831  0.168192  0.500161  1
  Si  Si73  1  0.160213  0.496961  0.202919  1
  Si  Si74  1  0.498919  0.666777  0.202919  1
  Si  Si75  1  0.329149  0.835688  0.202918  1
  Si  Si76  1  0.832103  0.502762  0.202920  1
  Si  Si77  1  0.493454  0.333044  0.202919  1
  Si  Si78  1  0.663168  0.164043  0.202916  1
  Si  Si79  1  0.498908  0.835747  0.202916  1
  Si  Si80  1  0.329142  0.497024  0.202918  1
  Si  Si81  1  0.160210  0.666758  0.202920  1
  Si  Si82  1  0.493452  0.164070  0.202919  1
  Si  Si83  1  0.663225  0.502801  0.202917  1
  Si  Si84  1  0.832115  0.332969  0.202920  1
  Si  Si85  1  0.832103  0.502762  0.797403  1
  Si  Si86  1  0.493454  0.333044  0.797403  1
  Si  Si87  1  0.663168  0.164043  0.797407  1
  Si  Si88  1  0.160213  0.496961  0.797404  1
  Si  Si89  1  0.498919  0.666777  0.797403  1
  Si  Si90  1  0.329149  0.835688  0.797404  1
  Si  Si91  1  0.493452  0.164070  0.797403  1
  Si  Si92  1  0.663225  0.502801  0.797406  1
  Si  Si93  1  0.832115  0.332969  0.797403  1
  Si  Si94  1  0.498908  0.835747  0.797406  1
  Si  Si95  1  0.329142  0.497024  0.797405  1
  Si  Si96  1  0.160210  0.666757  0.797402  1
  Si  Si97  1  0.093238  0.362803  0.500161  1
  Si  Si98  1  0.633017  0.733855  0.500161  1
  Si  Si99  1  0.262135  0.902800  0.500161  1
  Si  Si100  1  0.899119  0.636920  0.500161  1
  Si  Si101  1  0.359357  0.265936  0.500161  1
  Si  Si102  1  0.730216  0.096968  0.500161  1
  Si  Si103  1  0.633002  0.902755  0.500161  1
  Si  Si104  1  0.262107  0.362869  0.500161  1
  Si  Si105  1  0.093258  0.733935  0.500161  1
  Si  Si106  1  0.359355  0.097025  0.500161  1
  Si  Si107  1  0.730301  0.636956  0.500161  1
  Si  Si108  1  0.899099  0.265821  0.500161  1
