# generated using pymatgen
data_SiO2
_symmetry_space_group_name_H-M   'P 1'
_cell_length_a   25.48606903
_cell_length_b   5.08294294
_cell_length_c   12.24008037
_cell_angle_alpha   90.00000000
_cell_angle_beta   109.31200000
_cell_angle_gamma   90.00000000
_symmetry_Int_Tables_number   1
_chemical_formula_structural   SiO2
_chemical_formula_sum   'Si28 O56'
_cell_volume   1496.41104901
_cell_formula_units_Z   28
loop_
 _symmetry_equiv_pos_site_id
 _symmetry_equiv_pos_as_xyz
  1  'x, y, z'
loop_
 _atom_site_type_symbol
 _atom_site_label
 _atom_site_symmetry_multiplicity
 _atom_site_fract_x
 _atom_site_fract_y
 _atom_site_fract_z
 _atom_site_occupancy
  O  O1  1  0.997669  0.012228  0.144115  1
  O  O2  1  0.497661  0.512244  0.144119  1
  O  O3  1  0.002416  0.012283  0.855936  1
  O  O4  1  0.502412  0.512221  0.855945  1
  O  O5  1  0.088456  0.750808  0.235366  1
  O  O6  1  0.588480  0.251151  0.235427  1
  O  O7  1  0.911630  0.750923  0.764685  1
  O  O8  1  0.411605  0.250958  0.764652  1
  O  O9  1  0.908707  0.250666  0.761582  1
  O  O10  1  0.408726  0.750718  0.761606  1
  O  O11  1  0.091371  0.250567  0.238476  1
  O  O12  1  0.591340  0.750915  0.238435  1
  O  O13  1  0.073315  0.006325  0.050261  1
  O  O14  1  0.573312  0.506482  0.050273  1
  O  O15  1  0.926767  0.006416  0.949787  1
  O  O16  1  0.426763  0.506363  0.949790  1
  O  O17  1  0.096429  0.252571  0.890434  1
  O  O18  1  0.596407  0.752715  0.890420  1
  O  O19  1  0.903660  0.252613  0.109641  1
  O  O20  1  0.403664  0.752679  0.109615  1
  O  O21  1  0.906100  0.750885  0.109763  1
  O  O22  1  0.406074  0.250944  0.109763  1
  O  O23  1  0.093986  0.750840  0.890287  1
  O  O24  1  0.593992  0.250978  0.890304  1
  O  O25  1  0.338263  0.009364  0.590888  1
  O  O26  1  0.838265  0.509517  0.590895  1
  O  O27  1  0.661813  0.009512  0.409170  1
  O  O28  1  0.161818  0.509366  0.409157  1
  O  O29  1  0.329667  0.012299  0.786966  1
  O  O30  1  0.829670  0.512457  0.786967  1
  O  O31  1  0.670412  0.012489  0.213096  1
  O  O32  1  0.170410  0.512244  0.213074  1
  O  O33  1  0.337245  0.010780  0.197537  1
  O  O34  1  0.837261  0.510918  0.197562  1
  O  O35  1  0.662819  0.010922  0.802502  1
  O  O36  1  0.162829  0.510801  0.802504  1
  O  O37  1  0.321465  0.009184  0.985002  1
  O  O38  1  0.821483  0.509266  0.985021  1
  O  O39  1  0.678598  0.009273  0.015045  1
  O  O40  1  0.178614  0.509179  0.015041  1
  O  O41  1  0.255905  0.726617  0.823876  1
  O  O42  1  0.755820  0.227371  0.823819  1
  O  O43  1  0.744255  0.727358  0.176244  1
  O  O44  1  0.244159  0.226497  0.176149  1
  O  O45  1  0.753236  0.230984  0.183736  1
  O  O46  1  0.253328  0.730115  0.183859  1
  O  O47  1  0.246761  0.230237  0.816208  1
  O  O48  1  0.746848  0.731005  0.816331  1
  O  O49  1  0.292462  0.000894  0.366545  1
  O  O50  1  0.792463  0.501192  0.366553  1
  O  O51  1  0.707617  0.001194  0.633510  1
  O  O52  1  0.207615  0.500905  0.633498  1
  O  O53  1  0.255071  0.721851  0.500972  1
  O  O54  1  0.755054  0.222152  0.500950  1
  O  O55  1  0.745024  0.722149  0.499112  1
  O  O56  1  0.245010  0.221851  0.499078  1
  Si  Si57  1  0.061911  0.005127  0.168345  1
  Si  Si58  1  0.561906  0.505364  0.168355  1
  Si  Si59  1  0.938172  0.005249  0.831705  1
  Si  Si60  1  0.438168  0.505210  0.831708  1
  Si  Si61  1  0.066827  0.005715  0.918702  1
  Si  Si62  1  0.566824  0.505820  0.918714  1
  Si  Si63  1  0.933256  0.005762  0.081349  1
  Si  Si64  1  0.433250  0.505765  0.081347  1
  Si  Si65  1  0.373416  0.005562  0.723525  1
  Si  Si66  1  0.873416  0.505612  0.723526  1
  Si  Si67  1  0.626660  0.005726  0.276533  1
  Si  Si68  1  0.126663  0.505477  0.276524  1
  Si  Si69  1  0.368457  0.006065  0.105309  1
  Si  Si70  1  0.868469  0.506068  0.105331  1
  Si  Si71  1  0.631610  0.006122  0.894736  1
  Si  Si72  1  0.131619  0.506018  0.894736  1
  Si  Si73  1  0.287545  0.993379  0.853615  1
  Si  Si74  1  0.787551  0.493854  0.853633  1
  Si  Si75  1  0.712527  0.993850  0.146431  1
  Si  Si76  1  0.212532  0.493303  0.146427  1
  Si  Si77  1  0.283315  0.993013  0.233687  1
  Si  Si78  1  0.783322  0.493559  0.233697  1
  Si  Si79  1  0.716757  0.993566  0.766364  1
  Si  Si80  1  0.216761  0.493086  0.766357  1
  Si  Si81  1  0.282359  0.988666  0.485988  1
  Si  Si82  1  0.782359  0.488935  0.485999  1
  Si  Si83  1  0.717720  0.988934  0.514069  1
  Si  Si84  1  0.217720  0.488667  0.514057  1
