# generated using pymatgen
data_SiO2
_symmetry_space_group_name_H-M   'P 1'
_cell_length_a   20.16320754
_cell_length_b   19.86430911
_cell_length_c   13.29161272
_cell_angle_alpha   90.00000000
_cell_angle_beta   90.00000000
_cell_angle_gamma   90.00000000
_symmetry_Int_Tables_number   1
_chemical_formula_structural   SiO2
_chemical_formula_sum   'Si96 O192'
_cell_volume   5323.66554988
_cell_formula_units_Z   96
loop_
 _symmetry_equiv_pos_site_id
 _symmetry_equiv_pos_as_xyz
  1  'x, y, z'
loop_
 _atom_site_type_symbol
 _atom_site_label
 _atom_site_symmetry_multiplicity
 _atom_site_fract_x
 _atom_site_fract_y
 _atom_site_fract_z
 _atom_site_occupancy
  O  O1  1  0.000170  0.451148  0.801338  1
  O  O2  1  0.000170  0.048752  0.801313  1
  O  O3  1  0.309090  0.052017  0.943495  1
  O  O4  1  0.309092  0.447881  0.943507  1
  O  O5  1  0.189350  0.448640  0.330287  1
  O  O6  1  0.189344  0.051255  0.330288  1
  O  O7  1  0.252977  0.052587  0.771988  1
  O  O8  1  0.252976  0.447304  0.772000  1
  O  O9  1  0.294007  0.126269  0.106866  1
  O  O10  1  0.294016  0.373628  0.106879  1
  O  O11  1  0.198895  0.055545  0.037109  1
  O  O12  1  0.198901  0.444352  0.037127  1
  Si  Si13  1  0.227229  0.172712  0.545060  1
  Si  Si14  1  0.227232  0.327182  0.545069  1
  O  O15  1  0.100293  0.127758  0.096742  1
  O  O16  1  0.100296  0.372139  0.096752  1
  O  O17  1  0.091807  0.055644  0.933380  1
  O  O18  1  0.091814  0.444255  0.933394  1
  O  O19  1  0.126824  0.053401  0.749475  1
  O  O20  1  0.126823  0.446492  0.749484  1
  O  O21  1  0.203642  0.126189  0.633401  1
  O  O22  1  0.203643  0.373702  0.633412  1
  Si  Si23  1  0.305232  0.172681  0.200834  1
  Si  Si24  1  0.305236  0.327210  0.200842  1
  O  O25  1  0.120518  0.345705  0.277426  1
  O  O26  1  0.120511  0.154186  0.277420  1
  O  O27  1  0.078308  0.249948  0.164798  1
  O  O28  1  0.191420  0.346568  0.444066  1
  O  O29  1  0.191415  0.153330  0.444057  1
  O  O30  1  0.247489  0.343001  0.275506  1
  O  O31  1  0.247482  0.156896  0.275496  1
  O  O32  1  0.218181  0.249947  0.565792  1
  O  O33  1  0.303603  0.339905  0.529849  1
  O  O34  1  0.303600  0.159989  0.529836  1
  O  O35  1  0.302531  0.249946  0.177020  1
  Si  Si36  1  0.314829  0.026990  0.831732  1
  Si  Si37  1  0.314829  0.472904  0.831742  1
  Si  Si38  1  0.275722  0.059804  0.049666  1
  Si  Si39  1  0.275729  0.440093  0.049681  1
  Si  Si40  1  0.121842  0.061389  0.041431  1
  Si  Si41  1  0.121848  0.438509  0.041445  1
  Si  Si42  1  0.073527  0.028358  0.826448  1
  Si  Si43  1  0.073530  0.471538  0.826462  1
  Si  Si44  1  0.195206  0.059217  0.694345  1
  Si  Si45  1  0.195206  0.440675  0.694356  1
  Si  Si46  1  0.073977  0.327655  0.186241  1
  Si  Si47  1  0.073972  0.172240  0.186234  1
  Si  Si48  1  0.185203  0.370379  0.332039  1
  Si  Si49  1  0.185198  0.129516  0.332032  1
  O  O50  1  0.202788  0.499837  0.618025  1
  O  O51  1  0.095743  0.000364  0.103507  1
  O  O52  1  0.095748  0.499533  0.103521  1
  O  O53  1  0.202787  0.000055  0.618014  1
  O  O54  1  0.121321  0.548904  0.272725  1
  O  O55  1  0.121311  0.950995  0.272716  1
  O  O56  1  0.091349  0.625050  0.120660  1
  O  O57  1  0.091350  0.874847  0.120650  1
  Si  Si58  1  0.194824  0.672683  0.700841  1
  O  O59  1  0.297266  0.999841  0.118015  1
  O  O60  1  0.190970  0.552012  0.443506  1
  O  O61  1  0.190963  0.947877  0.443495  1
  O  O62  1  0.310710  0.948639  0.830287  1
  O  O63  1  0.310710  0.551255  0.830289  1
  O  O64  1  0.247086  0.552590  0.272000  1
  O  O65  1  0.247076  0.947306  0.271987  1
  O  O66  1  0.206047  0.626267  0.606877  1
  O  O67  1  0.206044  0.873625  0.606867  1
  O  O68  1  0.301162  0.555542  0.537127  1
  O  O69  1  0.301158  0.944348  0.537110  1
  O  O70  1  0.000342  0.849124  0.796009  1
  O  O71  1  0.000343  0.650774  0.796024  1
  O  O72  1  0.077780  0.950017  0.830273  1
  O  O73  1  0.077784  0.549879  0.830280  1
  O  O74  1  0.296417  0.626193  0.133412  1
  O  O75  1  0.296413  0.873706  0.133401  1
  O  O76  1  0.308640  0.846565  0.944056  1
  O  O77  1  0.308639  0.653327  0.944065  1
  O  O78  1  0.252573  0.842998  0.775496  1
  O  O79  1  0.252572  0.656898  0.775505  1
  O  O80  1  0.281876  0.749949  0.065791  1
  O  O81  1  0.196455  0.839906  0.029835  1
  O  O82  1  0.196457  0.659989  0.029849  1
  O  O83  1  0.109388  0.749948  0.056972  1
  O  O84  1  0.088078  0.845358  0.933060  1
  O  O85  1  0.088082  0.654536  0.933068  1
  O  O86  1  0.127393  0.844720  0.752850  1
  O  O87  1  0.127393  0.655177  0.752855  1
  O  O88  1  0.197530  0.749947  0.677025  1
  Si  Si89  1  0.076035  0.557381  0.177237  1
  Si  Si90  1  0.076029  0.942516  0.177222  1
  Si  Si91  1  0.185233  0.526991  0.331741  1
  Si  Si92  1  0.185224  0.972904  0.331732  1
  Si  Si93  1  0.224334  0.559801  0.549679  1
  Si  Si94  1  0.224330  0.940090  0.549667  1
  Si  Si95  1  0.304856  0.559221  0.194355  1
  Si  Si96  1  0.304847  0.940678  0.194345  1
  Si  Si97  1  0.314857  0.870378  0.832031  1
  Si  Si98  1  0.314856  0.629516  0.832039  1
  Si  Si99  1  0.272826  0.827183  0.045059  1
  Si  Si100  1  0.272828  0.672713  0.045068  1
  Si  Si101  1  0.119703  0.827341  0.036830  1
  Si  Si102  1  0.119705  0.672554  0.036838  1
  Si  Si103  1  0.072517  0.871861  0.825156  1
  Si  Si104  1  0.072519  0.628035  0.825164  1
  Si  Si105  1  0.194823  0.827212  0.700835  1
  O  O106  1  0.297274  0.500059  0.118024  1
  O  O107  1  0.500169  0.048749  0.698742  1
  O  O108  1  0.500171  0.451144  0.698764  1
  O  O109  1  0.378742  0.048901  0.772715  1
  O  O110  1  0.378741  0.450991  0.772725  1
  O  O111  1  0.408706  0.125045  0.620647  1
  O  O112  1  0.408710  0.374843  0.620663  1
  Si  Si113  1  0.427538  0.128033  0.325154  1
  Si  Si114  1  0.427541  0.371858  0.325165  1
  O  O115  1  0.600295  0.372131  0.403349  1
  O  O116  1  0.600294  0.127750  0.403315  1
  O  O117  1  0.591816  0.444244  0.566713  1
  O  O118  1  0.591805  0.055634  0.566672  1
  O  O119  1  0.626822  0.446503  0.750624  1
  O  O120  1  0.626824  0.053412  0.750575  1
  O  O121  1  0.422275  0.450014  0.330280  1
  O  O122  1  0.422276  0.049877  0.330274  1
  O  O123  1  0.499713  0.150772  0.296007  1
  O  O124  1  0.499718  0.349123  0.296026  1
  O  O125  1  0.620512  0.154189  0.222642  1
  O  O126  1  0.620519  0.345708  0.222673  1
  O  O127  1  0.578308  0.249944  0.335281  1
  O  O128  1  0.390670  0.249945  0.556972  1
  O  O129  1  0.411979  0.345359  0.433070  1
  O  O130  1  0.411976  0.154536  0.433058  1
  O  O131  1  0.372666  0.344714  0.252858  1
  O  O132  1  0.372661  0.155173  0.252848  1
  Si  Si133  1  0.424024  0.057377  0.677222  1
  Si  Si134  1  0.424027  0.442512  0.677237  1
  Si  Si135  1  0.621846  0.438500  0.458660  1
  Si  Si136  1  0.621843  0.061380  0.458623  1
  Si  Si137  1  0.573529  0.471538  0.673639  1
  Si  Si138  1  0.573528  0.028358  0.673610  1
  Si  Si139  1  0.573973  0.172237  0.313831  1
  Si  Si140  1  0.573976  0.327653  0.313853  1
  Si  Si141  1  0.380355  0.327340  0.536839  1
  Si  Si142  1  0.380352  0.172552  0.536828  1
  O  O143  1  0.595744  0.000356  0.396545  1
  O  O144  1  0.595746  0.499525  0.396588  1
  O  O145  1  0.499883  0.951140  0.301313  1
  O  O146  1  0.499892  0.548745  0.301339  1
  O  O147  1  0.621309  0.950990  0.227334  1
  O  O148  1  0.621322  0.548900  0.227384  1
  O  O149  1  0.591350  0.874840  0.379401  1
  O  O150  1  0.591349  0.625043  0.379448  1
  Si  Si151  1  0.572517  0.871861  0.674906  1
  Si  Si152  1  0.572519  0.628036  0.674935  1
  O  O153  1  0.399765  0.627754  0.596754  1
  O  O154  1  0.399761  0.872135  0.596742  1
  O  O155  1  0.408247  0.555638  0.433394  1
  O  O156  1  0.408246  0.944249  0.433381  1
  O  O157  1  0.373239  0.553404  0.249484  1
  O  O158  1  0.373230  0.946495  0.249475  1
  O  O159  1  0.577779  0.549880  0.669803  1
  O  O160  1  0.577785  0.950016  0.669804  1
  O  O161  1  0.500342  0.849123  0.704054  1
  O  O162  1  0.500342  0.650773  0.704073  1
  O  O163  1  0.379543  0.845708  0.777418  1
  O  O164  1  0.379542  0.654189  0.777427  1
  O  O165  1  0.421749  0.749946  0.664798  1
  O  O166  1  0.609388  0.749945  0.443108  1
  O  O167  1  0.588086  0.654544  0.567036  1
  O  O168  1  0.588075  0.845366  0.566996  1
  O  O169  1  0.627394  0.655171  0.747248  1
  O  O170  1  0.627393  0.844713  0.747206  1
  Si  Si171  1  0.576029  0.942509  0.322829  1
  Si  Si172  1  0.576035  0.557375  0.322872  1
  Si  Si173  1  0.378215  0.561384  0.541445  1
  Si  Si174  1  0.378211  0.938504  0.541431  1
  Si  Si175  1  0.426532  0.528356  0.326461  1
  Si  Si176  1  0.426527  0.971535  0.326449  1
  Si  Si177  1  0.426082  0.827654  0.686233  1
  Si  Si178  1  0.426083  0.672239  0.686243  1
  Si  Si179  1  0.619706  0.672553  0.463260  1
  Si  Si180  1  0.619703  0.827341  0.463232  1
  O  O181  1  0.404310  0.999528  0.603507  1
  O  O182  1  0.404315  0.500360  0.603520  1
  O  O183  1  0.878740  0.450999  0.727381  1
  O  O184  1  0.878743  0.048907  0.727337  1
  O  O185  1  0.908710  0.374851  0.879443  1
  O  O186  1  0.908706  0.125054  0.879406  1
  O  O187  1  0.702787  0.499847  0.882088  1
  O  O188  1  0.702788  0.000064  0.882032  1
  O  O189  1  0.809089  0.447870  0.556604  1
  O  O190  1  0.809093  0.052006  0.556553  1
  O  O191  1  0.689344  0.051255  0.169786  1
  O  O192  1  0.689351  0.448640  0.169799  1
  O  O193  1  0.752974  0.447313  0.728112  1
  O  O194  1  0.752978  0.052597  0.728060  1
  O  O195  1  0.794015  0.373620  0.393227  1
  O  O196  1  0.794009  0.126261  0.393189  1
  O  O197  1  0.698900  0.444343  0.462976  1
  O  O198  1  0.698896  0.055537  0.462947  1
  O  O199  1  0.999712  0.150772  0.204055  1
  O  O200  1  0.999718  0.349123  0.204072  1
  O  O201  1  0.922272  0.049878  0.169799  1
  O  O202  1  0.922279  0.450015  0.169806  1
  O  O203  1  0.703640  0.373711  0.866694  1
  O  O204  1  0.703645  0.126199  0.866652  1
  O  O205  1  0.691416  0.153324  0.056003  1
  O  O206  1  0.691421  0.346562  0.056035  1
  O  O207  1  0.747481  0.156902  0.224565  1
  O  O208  1  0.747489  0.343001  0.224594  1
  O  O209  1  0.718181  0.249951  0.934288  1
  O  O210  1  0.803601  0.159990  0.970227  1
  O  O211  1  0.803602  0.339906  0.970248  1
  O  O212  1  0.890670  0.249949  0.943108  1
  O  O213  1  0.911978  0.154531  0.067001  1
  O  O214  1  0.911977  0.345353  0.067031  1
  O  O215  1  0.872661  0.155178  0.247211  1
  O  O216  1  0.872668  0.344720  0.247244  1
  O  O217  1  0.802527  0.249944  0.323055  1
  Si  Si218  1  0.924026  0.442520  0.822870  1
  Si  Si219  1  0.924025  0.057385  0.822831  1
  Si  Si220  1  0.814827  0.472905  0.668364  1
  Si  Si221  1  0.814831  0.026992  0.668323  1
  Si  Si222  1  0.775728  0.440084  0.450429  1
  Si  Si223  1  0.775723  0.059794  0.450384  1
  Si  Si224  1  0.695204  0.440686  0.805755  1
  Si  Si225  1  0.695208  0.059228  0.805704  1
  Si  Si226  1  0.685198  0.129517  0.168031  1
  Si  Si227  1  0.685204  0.370379  0.168059  1
  Si  Si228  1  0.727230  0.172714  0.955003  1
  Si  Si229  1  0.727231  0.327184  0.955028  1
  Si  Si230  1  0.880353  0.172554  0.963234  1
  Si  Si231  1  0.880354  0.327342  0.963257  1
  Si  Si232  1  0.927537  0.128034  0.174908  1
  Si  Si233  1  0.927542  0.371859  0.174931  1
  Si  Si234  1  0.805231  0.172681  0.299229  1
  Si  Si235  1  0.805237  0.327210  0.299254  1
  O  O236  1  0.999892  0.548748  0.198767  1
  O  O237  1  0.999884  0.951143  0.198741  1
  O  O238  1  0.690959  0.947889  0.056552  1
  O  O239  1  0.690973  0.552026  0.056605  1
  O  O240  1  0.810710  0.551256  0.669794  1
  O  O241  1  0.810711  0.948641  0.669789  1
  O  O242  1  0.747074  0.947299  0.228059  1
  O  O243  1  0.747087  0.552582  0.228113  1
  O  O244  1  0.706042  0.873636  0.893186  1
  O  O245  1  0.706049  0.626277  0.893228  1
  O  O246  1  0.801157  0.944356  0.962944  1
  O  O247  1  0.801163  0.555550  0.962979  1
  Si  Si248  1  0.772825  0.827183  0.455004  1
  Si  Si249  1  0.772828  0.672712  0.455027  1
  O  O250  1  0.899759  0.872143  0.903316  1
  O  O251  1  0.899767  0.627762  0.903349  1
  O  O252  1  0.908246  0.944260  0.066672  1
  O  O253  1  0.908247  0.555648  0.066713  1
  O  O254  1  0.873229  0.946485  0.250576  1
  O  O255  1  0.873240  0.553394  0.250625  1
  O  O256  1  0.796409  0.873698  0.366652  1
  O  O257  1  0.796421  0.626185  0.366695  1
  Si  Si258  1  0.694823  0.827214  0.799227  1
  Si  Si259  1  0.694824  0.672685  0.799256  1
  O  O260  1  0.879543  0.654186  0.722671  1
  O  O261  1  0.879543  0.845705  0.722642  1
  O  O262  1  0.921750  0.749951  0.835281  1
  O  O263  1  0.808639  0.653336  0.556034  1
  O  O264  1  0.808640  0.846574  0.556002  1
  O  O265  1  0.752571  0.656890  0.724594  1
  O  O266  1  0.752573  0.842994  0.724563  1
  O  O267  1  0.781877  0.749946  0.434288  1
  O  O268  1  0.696458  0.659990  0.470247  1
  O  O269  1  0.696454  0.839906  0.470228  1
  O  O270  1  0.697527  0.749952  0.823060  1
  Si  Si271  1  0.685223  0.972904  0.168321  1
  Si  Si272  1  0.685234  0.526991  0.168365  1
  Si  Si273  1  0.724329  0.940101  0.950383  1
  Si  Si274  1  0.724335  0.559812  0.950430  1
  Si  Si275  1  0.878210  0.938513  0.958623  1
  Si  Si276  1  0.878216  0.561394  0.958661  1
  Si  Si277  1  0.926526  0.971536  0.173610  1
  Si  Si278  1  0.926532  0.528357  0.173640  1
  Si  Si279  1  0.804845  0.940669  0.305703  1
  Si  Si280  1  0.804858  0.559211  0.305755  1
  Si  Si281  1  0.926084  0.672242  0.813853  1
  Si  Si282  1  0.926082  0.827657  0.813832  1
  Si  Si283  1  0.814857  0.629517  0.668057  1
  Si  Si284  1  0.814857  0.870379  0.668032  1
  O  O285  1  0.904308  0.999537  0.896545  1
  O  O286  1  0.797264  0.999831  0.382032  1
  O  O287  1  0.904316  0.500369  0.896586  1
  O  O288  1  0.797276  0.500050  0.382088  1
