# generated using pymatgen
data_SiO2
_symmetry_space_group_name_H-M   'P 1'
_cell_length_a   13.31455098
_cell_length_b   13.27749269
_cell_length_c   13.28550072
_cell_angle_alpha   90.00000000
_cell_angle_beta   90.00000000
_cell_angle_gamma   90.00000000
_symmetry_Int_Tables_number   1
_chemical_formula_structural   SiO2
_chemical_formula_sum   'Si46 O92'
_cell_volume   2348.66201066
_cell_formula_units_Z   46
loop_
 _symmetry_equiv_pos_site_id
 _symmetry_equiv_pos_as_xyz
  1  'x, y, z'
loop_
 _atom_site_type_symbol
 _atom_site_label
 _atom_site_symmetry_multiplicity
 _atom_site_fract_x
 _atom_site_fract_y
 _atom_site_fract_z
 _atom_site_occupancy
  O  O1  1  0.001012  0.333915  0.010185  1
  O  O2  1  0.094582  0.243090  0.148416  1
  O  O3  1  0.143987  0.095722  0.259287  1
  O  O4  1  0.237989  0.129576  0.094795  1
  O  O5  1  0.904791  0.253726  0.154155  1
  O  O6  1  0.858946  0.095658  0.252659  1
  O  O7  1  0.764657  0.140399  0.091731  1
  O  O8  1  0.594517  0.368182  0.249407  1
  O  O9  1  0.404479  0.372538  0.258944  1
  O  O10  1  0.009711  0.408401  0.191033  1
  O  O11  1  0.595623  0.189433  0.016572  1
  Si  Si12  1  0.315481  0.321459  0.315745  1
  O  O13  1  0.490014  0.329627  0.094022  1
  Si  Si14  1  0.678921  0.320217  0.314780  1
  O  O15  1  0.260254  0.247120  0.243905  1
  O  O16  1  0.740203  0.244898  0.249511  1
  Si  Si17  1  0.002453  0.311427  0.126117  1
  Si  Si18  1  0.817594  0.183308  0.187104  1
  Si  Si19  1  0.310203  0.109351  0.004397  1
  Si  Si20  1  0.690455  0.122093  0.002637  1
  Si  Si21  1  0.496990  0.395519  0.190538  1
  Si  Si22  1  0.184183  0.178679  0.186804  1
  O  O23  1  0.406720  0.174352  0.017758  1
  Si  Si24  1  0.495705  0.249798  0.008660  1
  O  O25  1  0.833573  0.497071  0.500772  1
  O  O26  1  0.494926  0.165322  0.496435  1
  O  O27  1  0.733907  0.407573  0.636087  1
  O  O28  1  0.636436  0.247332  0.594762  1
  O  O29  1  0.749810  0.403777  0.355784  1
  O  O30  1  0.631526  0.262523  0.405045  1
  O  O31  1  0.239883  0.403336  0.352423  1
  O  O32  1  0.356670  0.262694  0.408257  1
  O  O33  1  0.259737  0.406261  0.634392  1
  O  O34  1  0.349306  0.240115  0.596855  1
  O  O35  1  0.819802  0.021961  0.594131  1
  O  O36  1  0.678005  0.095693  0.485878  1
  O  O37  1  0.314956  0.090965  0.481794  1
  Si  Si38  1  0.810127  0.494772  0.616580  1
  Si  Si39  1  0.749929  0.004527  0.501446  1
  Si  Si40  1  0.610225  0.190846  0.495436  1
  O  O41  1  0.182632  0.008765  0.593198  1
  Si  Si42  1  0.379024  0.188197  0.495941  1
  Si  Si43  1  0.190768  0.499147  0.614824  1
  O  O44  1  0.001580  0.005026  0.665896  1
  Si  Si45  1  0.000575  0.491005  0.749692  1
  O  O46  1  0.500899  0.488994  0.834747  1
  O  O47  1  0.094814  0.239797  0.872652  1
  O  O48  1  0.142488  0.095558  0.757775  1
  O  O49  1  0.255872  0.140324  0.905120  1
  O  O50  1  0.904761  0.249813  0.867765  1
  O  O51  1  0.864584  0.091280  0.766946  1
  O  O52  1  0.743951  0.151837  0.902665  1
  O  O53  1  0.598217  0.345571  0.755093  1
  O  O54  1  0.409281  0.352206  0.739158  1
  O  O55  1  0.665606  0.006560  0.998884  1
  O  O56  1  0.008897  0.404793  0.828335  1
  O  O57  1  0.905590  0.477090  0.682508  1
  O  O58  1  0.489433  0.305884  0.906192  1
  O  O59  1  0.094328  0.489837  0.680113  1
  O  O60  1  0.243603  0.258215  0.754854  1
  O  O61  1  0.762010  0.249598  0.739637  1
  Si  Si62  1  0.002432  0.308599  0.894744  1
  Si  Si63  1  0.885893  0.005194  0.689842  1
  Si  Si64  1  0.499204  0.373188  0.810945  1
  Si  Si65  1  0.184495  0.183276  0.822728  1
  Si  Si66  1  0.819317  0.185802  0.819661  1
  Si  Si67  1  0.682230  0.312247  0.680816  1
  Si  Si68  1  0.315275  0.314144  0.681080  1
  Si  Si69  1  0.117157  0.003595  0.689979  1
  O  O70  1  0.499220  0.511153  0.165572  1
  O  O71  1  0.591688  0.647385  0.261641  1
  O  O72  1  0.904668  0.760686  0.126391  1
  O  O73  1  0.857734  0.905646  0.240849  1
  O  O74  1  0.743405  0.859648  0.094500  1
  O  O75  1  0.094640  0.749271  0.132170  1
  O  O76  1  0.134570  0.907470  0.233714  1
  O  O77  1  0.255134  0.848579  0.097707  1
  O  O78  1  0.402591  0.655074  0.244299  1
  O  O79  1  0.512824  0.694043  0.094015  1
  O  O80  1  0.988453  0.595854  0.173239  1
  Si  Si81  1  0.114116  0.994213  0.310253  1
  O  O82  1  0.756511  0.743038  0.245415  1
  O  O83  1  0.237702  0.749296  0.259821  1
  Si  Si84  1  0.882888  0.996503  0.310238  1
  Si  Si85  1  0.501966  0.626918  0.189342  1
  O  O86  1  0.094957  0.523598  0.317095  1
  Si  Si87  1  0.996635  0.690910  0.105297  1
  Si  Si88  1  0.685812  0.686043  0.319218  1
  Si  Si89  1  0.815326  0.817448  0.176773  1
  Si  Si90  1  0.179965  0.813400  0.180363  1
  Si  Si91  1  0.318108  0.687329  0.318530  1
  Si  Si92  1  0.999691  0.508601  0.250417  1
  O  O93  1  0.906880  0.505406  0.321179  1
  O  O94  1  0.334565  0.993619  0.001271  1
  Si  Si95  1  0.250100  0.994759  0.498676  1
  Si  Si96  1  0.389768  0.808403  0.504167  1
  O  O97  1  0.505124  0.833530  0.503686  1
  O  O98  1  0.166382  0.503251  0.499243  1
  O  O99  1  0.759390  0.595903  0.647977  1
  O  O100  1  0.643420  0.737313  0.592988  1
  O  O101  1  0.742946  0.594381  0.364501  1
  O  O102  1  0.651576  0.758955  0.404259  1
  O  O103  1  0.267213  0.591606  0.363544  1
  O  O104  1  0.363482  0.752750  0.404418  1
  O  O105  1  0.248053  0.596612  0.645443  1
  O  O106  1  0.367698  0.736109  0.593895  1
  O  O107  1  0.180375  0.977577  0.405856  1
  Si  Si108  1  0.621077  0.811106  0.504777  1
  O  O109  1  0.817243  0.989745  0.406863  1
  O  O110  1  0.684618  0.908698  0.518803  1
  O  O111  1  0.322331  0.903794  0.514001  1
  Si  Si112  1  0.190099  0.505153  0.383427  1
  Si  Si113  1  0.809429  0.500129  0.385217  1
  O  O114  1  0.998473  0.995006  0.334414  1
  Si  Si115  1  0.320347  0.679718  0.685035  1
  O  O116  1  0.998781  0.664637  0.989915  1
  O  O117  1  0.595097  0.627748  0.741923  1
  O  O118  1  0.906770  0.756837  0.851779  1
  O  O119  1  0.856317  0.903197  0.740077  1
  O  O120  1  0.762882  0.870585  0.905051  1
  O  O121  1  0.096557  0.746473  0.847490  1
  O  O122  1  0.140775  0.905237  0.749043  1
  O  O123  1  0.236710  0.859708  0.908581  1
  O  O124  1  0.404804  0.631414  0.750178  1
  O  O125  1  0.508278  0.670139  0.906313  1
  O  O126  1  0.992598  0.592424  0.807281  1
  O  O127  1  0.593501  0.825568  0.980686  1
  O  O128  1  0.740576  0.751594  0.757162  1
  O  O129  1  0.260180  0.756266  0.750017  1
  Si  Si130  1  0.504606  0.750141  0.991626  1
  Si  Si131  1  0.502167  0.604565  0.809611  1
  Si  Si132  1  0.998756  0.688233  0.874031  1
  Si  Si133  1  0.183110  0.817230  0.813515  1
  Si  Si134  1  0.684482  0.678075  0.685195  1
  Si  Si135  1  0.816721  0.820655  0.813409  1
  O  O136  1  0.404636  0.810526  0.985607  1
  Si  Si137  1  0.689846  0.890821  0.994874  1
  Si  Si138  1  0.309867  0.878055  0.998365  1
