# generated using pymatgen
data_SiO2
_symmetry_space_group_name_H-M   'P 1'
_cell_length_a   18.19751636
_cell_length_b   19.86970473
_cell_length_c   7.45570403
_cell_angle_alpha   90.00000000
_cell_angle_beta   90.00000000
_cell_angle_gamma   90.00000000
_symmetry_Int_Tables_number   1
_chemical_formula_structural   SiO2
_chemical_formula_sum   'Si48 O96'
_cell_volume   2695.82807105
_cell_formula_units_Z   48
loop_
 _symmetry_equiv_pos_site_id
 _symmetry_equiv_pos_as_xyz
  1  'x, y, z'
loop_
 _atom_site_type_symbol
 _atom_site_label
 _atom_site_symmetry_multiplicity
 _atom_site_fract_x
 _atom_site_fract_y
 _atom_site_fract_z
 _atom_site_occupancy
  O  O1  1  0.290429  0.999943  0.000078  1
  O  O2  1  0.789862  0.499926  0.000187  1
  O  O3  1  0.709693  0.999919  0.000190  1
  O  O4  1  0.210246  0.499946  0.000073  1
  O  O5  1  0.290430  0.999944  0.500049  1
  O  O6  1  0.789873  0.499928  0.500213  1
  O  O7  1  0.709689  0.999936  0.500226  1
  O  O8  1  0.210243  0.499945  0.500056  1
  O  O9  1  0.325365  0.082414  0.250068  1
  O  O10  1  0.824136  0.582802  0.250187  1
  O  O11  1  0.674743  0.082379  0.250201  1
  O  O12  1  0.175968  0.582827  0.250059  1
  O  O13  1  0.325362  0.917484  0.750060  1
  O  O14  1  0.824141  0.417044  0.750206  1
  O  O15  1  0.674738  0.917463  0.750182  1
  O  O16  1  0.175970  0.417068  0.750073  1
  O  O17  1  0.374991  0.096934  0.922039  1
  O  O18  1  0.874872  0.596357  0.922355  1
  O  O19  1  0.625114  0.096905  0.922161  1
  O  O20  1  0.125240  0.596365  0.922239  1
  O  O21  1  0.374981  0.902944  0.422023  1
  O  O22  1  0.874889  0.403512  0.422377  1
  O  O23  1  0.625109  0.902962  0.422140  1
  O  O24  1  0.125249  0.403509  0.422253  1
  O  O25  1  0.625102  0.902952  0.078216  1
  O  O26  1  0.125234  0.403521  0.077901  1
  O  O27  1  0.375002  0.902950  0.078095  1
  O  O28  1  0.874869  0.403499  0.078023  1
  O  O29  1  0.625122  0.096927  0.578239  1
  O  O30  1  0.125222  0.596357  0.577885  1
  O  O31  1  0.375010  0.096921  0.578109  1
  O  O32  1  0.874862  0.596373  0.578002  1
  O  O33  1  0.242242  0.123495  0.999090  1
  O  O34  1  0.741841  0.623306  0.995605  1
  O  O35  1  0.757869  0.123467  0.999246  1
  O  O36  1  0.258271  0.623328  0.995478  1
  O  O37  1  0.242227  0.876403  0.499088  1
  O  O38  1  0.741856  0.376549  0.495599  1
  O  O39  1  0.757862  0.876383  0.499210  1
  O  O40  1  0.258285  0.376571  0.495510  1
  O  O41  1  0.757854  0.876364  0.001159  1
  O  O42  1  0.258270  0.376568  0.004649  1
  O  O43  1  0.242246  0.876396  0.001027  1
  O  O44  1  0.741843  0.376540  0.004788  1
  O  O45  1  0.757881  0.123476  0.501163  1
  O  O46  1  0.258259  0.623324  0.504645  1
  O  O47  1  0.242251  0.123491  0.501065  1
  O  O48  1  0.741827  0.623301  0.504771  1
  O  O49  1  0.318314  0.305030  0.250068  1
  O  O50  1  0.820375  0.809128  0.250211  1
  O  O51  1  0.681797  0.305006  0.250220  1
  O  O52  1  0.179752  0.809122  0.250047  1
  O  O53  1  0.318318  0.694857  0.750044  1
  O  O54  1  0.820361  0.190742  0.750227  1
  O  O55  1  0.681811  0.694864  0.750200  1
  O  O56  1  0.179749  0.190765  0.750062  1
  O  O57  1  0.249307  0.250351  0.994861  1
  O  O58  1  0.750821  0.749516  0.005459  1
  O  O59  1  0.750759  0.250314  0.994980  1
  O  O60  1  0.249357  0.749552  0.005287  1
  O  O61  1  0.249337  0.749546  0.494812  1
  O  O62  1  0.750788  0.250329  0.505456  1
  O  O63  1  0.750794  0.749521  0.494955  1
  O  O64  1  0.249331  0.250352  0.505298  1
  O  O65  1  0.371717  0.304113  0.920563  1
  O  O66  1  0.871861  0.803897  0.920021  1
  O  O67  1  0.628374  0.304117  0.920715  1
  O  O68  1  0.128281  0.803879  0.919863  1
  O  O69  1  0.371727  0.695753  0.420540  1
  O  O70  1  0.871853  0.195987  0.420047  1
  O  O71  1  0.628382  0.695755  0.420692  1
  O  O72  1  0.128278  0.195992  0.419884  1
  O  O73  1  0.628399  0.695764  0.079700  1
  O  O74  1  0.128257  0.195983  0.080249  1
  O  O75  1  0.371743  0.695753  0.079547  1
  O  O76  1  0.871832  0.195988  0.080411  1
  O  O77  1  0.628393  0.304122  0.579727  1
  O  O78  1  0.128269  0.803878  0.580227  1
  O  O79  1  0.371738  0.304118  0.579572  1
  O  O80  1  0.871840  0.803891  0.580393  1
  O  O81  1  0.000061  0.394255  0.250136  1
  O  O82  1  0.500050  0.893646  0.250154  1
  O  O83  1  0.000046  0.605618  0.750131  1
  O  O84  1  0.500062  0.106229  0.750157  1
  O  O85  1  0.092044  0.299043  0.250057  1
  O  O86  1  0.591799  0.798347  0.250203  1
  O  O87  1  0.908083  0.299039  0.250226  1
  O  O88  1  0.408320  0.798340  0.250056  1
  O  O89  1  0.092035  0.700827  0.750058  1
  O  O90  1  0.591804  0.201528  0.750215  1
  O  O91  1  0.908073  0.700836  0.750206  1
  O  O92  1  0.408320  0.201531  0.750062  1
  O  O93  1  0.000058  0.203933  0.250142  1
  O  O94  1  0.500063  0.703095  0.250118  1
  O  O95  1  0.000063  0.795942  0.750105  1
  O  O96  1  0.500057  0.296776  0.750146  1
  Si  Si97  1  0.308354  0.075674  0.043650  1
  Si  Si98  1  0.807797  0.575660  0.043483  1
  Si  Si99  1  0.691752  0.075646  0.043780  1
  Si  Si100  1  0.192317  0.575680  0.043362  1
  Si  Si101  1  0.308350  0.924215  0.543641  1
  Si  Si102  1  0.807809  0.424196  0.543503  1
  Si  Si103  1  0.691749  0.924205  0.543766  1
  Si  Si104  1  0.192321  0.424212  0.543374  1
  Si  Si105  1  0.691747  0.924192  0.956602  1
  Si  Si106  1  0.192311  0.424213  0.956775  1
  Si  Si107  1  0.308363  0.924215  0.956485  1
  Si  Si108  1  0.807793  0.424192  0.956903  1
  Si  Si109  1  0.691758  0.075663  0.456623  1
  Si  Si110  1  0.192304  0.575677  0.456762  1
  Si  Si111  1  0.308367  0.075674  0.456491  1
  Si  Si112  1  0.807790  0.575661  0.456888  1
  Si  Si113  1  0.301547  0.309837  0.043632  1
  Si  Si114  1  0.802206  0.810665  0.043990  1
  Si  Si115  1  0.698550  0.309820  0.043779  1
  Si  Si116  1  0.197930  0.810670  0.043830  1
  Si  Si117  1  0.301554  0.690045  0.543608  1
  Si  Si118  1  0.802197  0.189198  0.544003  1
  Si  Si119  1  0.698556  0.690035  0.543758  1
  Si  Si120  1  0.197930  0.189215  0.543848  1
  Si  Si121  1  0.698571  0.690042  0.956638  1
  Si  Si122  1  0.197913  0.189212  0.956285  1
  Si  Si123  1  0.301566  0.690047  0.956485  1
  Si  Si124  1  0.802183  0.189194  0.956444  1
  Si  Si125  1  0.698565  0.309825  0.456653  1
  Si  Si126  1  0.197921  0.810672  0.456268  1
  Si  Si127  1  0.301564  0.309843  0.456511  1
  Si  Si128  1  0.802189  0.810664  0.456424  1
  Si  Si129  1  0.084572  0.377095  0.250083  1
  Si  Si130  1  0.584506  0.876386  0.250188  1
  Si  Si131  1  0.915550  0.377089  0.250191  1
  Si  Si132  1  0.415594  0.876380  0.250074  1
  Si  Si133  1  0.084559  0.622777  0.750073  1
  Si  Si134  1  0.584518  0.123488  0.750204  1
  Si  Si135  1  0.915536  0.622785  0.750178  1
  Si  Si136  1  0.415604  0.123492  0.750083  1
  Si  Si137  1  0.084619  0.220876  0.250081  1
  Si  Si138  1  0.584655  0.720162  0.250185  1
  Si  Si139  1  0.915494  0.220870  0.250210  1
  Si  Si140  1  0.415471  0.720157  0.250059  1
  Si  Si141  1  0.084624  0.778996  0.750056  1
  Si  Si142  1  0.584648  0.279712  0.750201  1
  Si  Si143  1  0.915500  0.779005  0.750189  1
  Si  Si144  1  0.415464  0.279714  0.750084  1
