# generated using pymatgen
data_SiO2
_symmetry_space_group_name_H-M   'P 1'
_cell_length_a   20.04675911
_cell_length_b   20.04667794
_cell_length_c   13.37145907
_cell_angle_alpha   90.00000000
_cell_angle_beta   90.00000000
_cell_angle_gamma   90.00000000
_symmetry_Int_Tables_number   1
_chemical_formula_structural   SiO2
_chemical_formula_sum   'Si96 O192'
_cell_volume   5373.60060774
_cell_formula_units_Z   96
loop_
 _symmetry_equiv_pos_site_id
 _symmetry_equiv_pos_as_xyz
  1  'x, y, z'
loop_
 _atom_site_type_symbol
 _atom_site_label
 _atom_site_symmetry_multiplicity
 _atom_site_fract_x
 _atom_site_fract_y
 _atom_site_fract_z
 _atom_site_occupancy
  O  O1  1  0.098952  0.122120  0.090113  1
  O  O2  1  0.122215  0.098872  0.909993  1
  O  O3  1  0.093526  0.248790  0.084994  1
  O  O4  1  0.406519  0.251105  0.584996  1
  O  O5  1  0.248884  0.093445  0.915129  1
  O  O6  1  0.095611  0.192418  0.254031  1
  O  O7  1  0.404429  0.307470  0.754037  1
  O  O8  1  0.192518  0.095531  0.746086  1
  O  O9  1  0.199427  0.193562  0.144701  1
  O  O10  1  0.300617  0.306331  0.644696  1
  O  O11  1  0.193659  0.199347  0.855419  1
  O  O12  1  0.306401  0.300545  0.355424  1
  O  O13  1  0.125032  0.198704  0.441469  1
  O  O14  1  0.375012  0.301185  0.941475  1
  O  O15  1  0.198781  0.124961  0.558651  1
  O  O16  1  0.088583  0.301030  0.348057  1
  O  O17  1  0.411463  0.198860  0.848066  1
  O  O18  1  0.301119  0.088513  0.652035  1
  O  O19  1  0.000020  0.213587  0.378404  1
  O  O20  1  0.296578  0.123022  0.083149  1
  O  O21  1  0.123105  0.296486  0.916978  1
  O  O22  1  0.376940  0.203398  0.416984  1
  O  O23  1  0.305234  0.194735  0.250065  1
  O  O24  1  0.194812  0.305158  0.750063  1
  O  O25  1  0.301215  0.248857  0.076670  1
  O  O26  1  0.198827  0.251032  0.576670  1
  O  O27  1  0.248941  0.301141  0.923457  1
  O  O28  1  0.251103  0.198757  0.423452  1
  O  O29  1  0.000025  0.302815  0.987305  1
  O  O30  1  0.373994  0.093090  0.935354  1
  O  O31  1  0.406894  0.125993  0.564779  1
  Si  Si32  1  0.307489  0.307406  0.000066  1
  O  O33  1  0.407863  0.092105  0.750063  1
  O  O34  1  0.000032  0.087933  0.980631  1
  Si  Si35  1  0.192555  0.192485  0.500060  1
  Si  Si36  1  0.121921  0.187853  0.144015  1
  Si  Si37  1  0.378122  0.312039  0.644020  1
  Si  Si38  1  0.187952  0.121840  0.856102  1
  Si  Si39  1  0.076540  0.223954  0.357553  1
  Si  Si40  1  0.423504  0.275936  0.857559  1
  Si  Si41  1  0.224043  0.076468  0.642555  1
  Si  Si42  1  0.276969  0.188392  0.140792  1
  Si  Si43  1  0.223074  0.311498  0.640788  1
  Si  Si44  1  0.188478  0.276888  0.859335  1
  Si  Si45  1  0.311571  0.223003  0.359337  1
  Si  Si46  1  0.306561  0.076624  0.989579  1
  Si  Si47  1  0.076705  0.306467  0.010545  1
  Si  Si48  1  0.423344  0.193428  0.510548  1
  Si  Si49  1  0.423452  0.121848  0.855556  1
  Si  Si50  1  0.378131  0.076526  0.644559  1
  Si  Si51  1  0.076785  0.076698  0.000046  1
  O  O52  1  0.377844  0.598869  0.409983  1
  O  O53  1  0.401097  0.377773  0.590127  1
  O  O54  1  0.401106  0.622136  0.590097  1
  O  O55  1  0.377839  0.401025  0.410009  1
  O  O56  1  0.251174  0.593440  0.415106  1
  O  O57  1  0.251167  0.406442  0.415132  1
  O  O58  1  0.307547  0.595538  0.246068  1
  O  O59  1  0.307541  0.404361  0.246097  1
  O  O60  1  0.301278  0.624950  0.058627  1
  O  O61  1  0.301271  0.374928  0.058662  1
  O  O62  1  0.198943  0.588508  0.152025  1
  O  O63  1  0.198937  0.411380  0.152050  1
  O  O64  1  0.286385  0.499941  0.121701  1
  O  O65  1  0.203463  0.376868  0.583144  1
  O  O66  1  0.203477  0.623031  0.583116  1
  O  O67  1  0.197141  0.499947  0.512805  1
  O  O68  1  0.126055  0.406801  0.435341  1
  O  O69  1  0.093174  0.625978  0.064740  1
  O  O70  1  0.126063  0.593090  0.435321  1
  O  O71  1  0.093168  0.373902  0.064769  1
  O  O72  1  0.111077  0.499943  0.122098  1
  O  O73  1  0.000027  0.611001  0.377971  1
  O  O74  1  0.092182  0.407786  0.250052  1
  O  O75  1  0.092190  0.592111  0.250031  1
  Si  Si76  1  0.423268  0.423197  0.500064  1
  O  O77  1  0.412040  0.499952  0.519465  1
  Si  Si78  1  0.423274  0.576705  0.500042  1
  Si  Si79  1  0.312110  0.621840  0.356088  1
  Si  Si80  1  0.312106  0.378051  0.356113  1
  Si  Si81  1  0.276019  0.576463  0.142543  1
  Si  Si82  1  0.276013  0.423423  0.142566  1
  Si  Si83  1  0.193486  0.423266  0.489573  1
  Si  Si84  1  0.193494  0.576627  0.489554  1
  Si  Si85  1  0.076595  0.378043  0.355547  1
  Si  Si86  1  0.121931  0.576520  0.144538  1
  Si  Si87  1  0.076604  0.621851  0.355528  1
  Si  Si88  1  0.121925  0.423367  0.144556  1
  O  O89  1  0.000019  0.388895  0.377994  1
  O  O90  1  0.122223  0.901021  0.909973  1
  O  O91  1  0.098958  0.877760  0.090085  1
  O  O92  1  0.248892  0.906444  0.915109  1
  O  O93  1  0.406533  0.748805  0.584968  1
  O  O94  1  0.093533  0.751090  0.084961  1
  O  O95  1  0.192524  0.904354  0.746067  1
  O  O96  1  0.404437  0.692434  0.754008  1
  O  O97  1  0.095623  0.807465  0.253998  1
  O  O98  1  0.306402  0.699347  0.355415  1
  O  O99  1  0.193666  0.800541  0.855406  1
  O  O100  1  0.300627  0.693579  0.644659  1
  O  O101  1  0.199436  0.806316  0.144662  1
  O  O102  1  0.198788  0.874939  0.558628  1
  O  O103  1  0.375027  0.698699  0.941447  1
  O  O104  1  0.125041  0.801198  0.441437  1
  O  O105  1  0.301125  0.911385  0.652022  1
  O  O106  1  0.411472  0.801035  0.848054  1
  O  O107  1  0.088594  0.698863  0.348044  1
  Si  Si108  1  0.192563  0.807417  0.500034  1
  O  O109  1  0.213677  0.999948  0.621694  1
  O  O110  1  0.376947  0.796499  0.416953  1
  O  O111  1  0.123119  0.703392  0.916949  1
  O  O112  1  0.296590  0.876856  0.083121  1
  O  O113  1  0.305240  0.805148  0.250036  1
  O  O114  1  0.194826  0.694738  0.750033  1
  O  O115  1  0.251112  0.801144  0.423428  1
  O  O116  1  0.248956  0.698745  0.923424  1
  O  O117  1  0.198831  0.748868  0.576640  1
  O  O118  1  0.301228  0.751020  0.076645  1
  Si  Si119  1  0.307502  0.692473  0.000035  1
  O  O120  1  0.406895  0.873916  0.564745  1
  O  O121  1  0.374002  0.906808  0.935329  1
  Si  Si122  1  0.076790  0.923190  0.000027  1
  O  O123  1  0.407874  0.907785  0.750038  1
  O  O124  1  0.000038  0.911958  0.980607  1
  Si  Si125  1  0.187958  0.878047  0.856084  1
  Si  Si126  1  0.378133  0.687871  0.643989  1
  Si  Si127  1  0.121930  0.812026  0.143980  1
  Si  Si128  1  0.224049  0.923428  0.642540  1
  Si  Si129  1  0.423515  0.723959  0.857533  1
  Si  Si130  1  0.076551  0.775939  0.357526  1
  Si  Si131  1  0.311577  0.776889  0.359313  1
  Si  Si132  1  0.188491  0.722999  0.859309  1
  Si  Si133  1  0.223085  0.688402  0.640756  1
  Si  Si134  1  0.276978  0.811486  0.140761  1
  Si  Si135  1  0.423352  0.806482  0.510515  1
  Si  Si136  1  0.076714  0.693412  0.010511  1
  Si  Si137  1  0.306568  0.923263  0.989561  1
  Si  Si138  1  0.378136  0.923374  0.644541  1
  Si  Si139  1  0.423461  0.878048  0.855535  1
  O  O140  1  0.000031  0.786309  0.378375  1
  O  O141  1  0.000035  0.697064  0.987263  1
  O  O142  1  0.302911  0.999942  0.012812  1
  O  O143  1  0.388986  0.999952  0.622101  1
  O  O144  1  0.088019  0.999943  0.019446  1
  O  O145  1  0.877852  0.098877  0.909977  1
  O  O146  1  0.901104  0.122120  0.090099  1
  O  O147  1  0.751182  0.093455  0.915111  1
  O  O148  1  0.906519  0.248791  0.084981  1
  O  O149  1  0.593530  0.251107  0.584983  1
  O  O150  1  0.807547  0.095541  0.746070  1
  O  O151  1  0.904436  0.192419  0.254017  1
  O  O152  1  0.595609  0.307474  0.754025  1
  O  O153  1  0.806406  0.199355  0.855403  1
  O  O154  1  0.693644  0.300553  0.355391  1
  O  O155  1  0.800622  0.193559  0.144684  1
  O  O156  1  0.699426  0.306335  0.644699  1
  O  O157  1  0.801264  0.124973  0.558637  1
  O  O158  1  0.875006  0.198711  0.441453  1
  O  O159  1  0.625037  0.301190  0.941460  1
  O  O160  1  0.698937  0.088518  0.652037  1
  O  O161  1  0.911459  0.301033  0.348040  1
  O  O162  1  0.588588  0.198864  0.848054  1
  O  O163  1  0.500024  0.286307  0.878410  1
  O  O164  1  0.876945  0.296500  0.916970  1
  O  O165  1  0.623101  0.203411  0.416961  1
  O  O166  1  0.703471  0.123027  0.083124  1
  O  O167  1  0.805238  0.305167  0.750050  1
  O  O168  1  0.694813  0.194736  0.250045  1
  O  O169  1  0.751109  0.301143  0.923440  1
  O  O170  1  0.748936  0.198767  0.423439  1
  O  O171  1  0.698837  0.248864  0.076656  1
  O  O172  1  0.801214  0.251044  0.576654  1
  Si  Si173  1  0.692562  0.307411  0.000049  1
  Si  Si174  1  0.807483  0.192496  0.500046  1
  O  O175  1  0.500023  0.197089  0.487302  1
  O  O176  1  0.593168  0.125996  0.564753  1
  O  O177  1  0.626069  0.093089  0.935319  1
  O  O178  1  0.500029  0.110998  0.877998  1
  O  O179  1  0.592182  0.092113  0.750037  1
  Si  Si180  1  0.812116  0.121850  0.856086  1
  Si  Si181  1  0.878128  0.187852  0.143999  1
  Si  Si182  1  0.621921  0.312043  0.644010  1
  Si  Si183  1  0.776013  0.076476  0.642544  1
  Si  Si184  1  0.923501  0.223957  0.357540  1
  Si  Si185  1  0.576543  0.275939  0.857549  1
  Si  Si186  1  0.811576  0.276898  0.859321  1
  Si  Si187  1  0.688472  0.223011  0.359314  1
  Si  Si188  1  0.723080  0.188395  0.140773  1
  Si  Si189  1  0.776968  0.311508  0.640779  1
  Si  Si190  1  0.923344  0.306472  0.010540  1
  Si  Si191  1  0.576705  0.193432  0.510533  1
  Si  Si192  1  0.693501  0.076629  0.989551  1
  Si  Si193  1  0.621926  0.076531  0.644541  1
  Si  Si194  1  0.576603  0.121851  0.855537  1
  Si  Si195  1  0.923278  0.076700  0.000034  1
  O  O196  1  0.598957  0.622137  0.590077  1
  O  O197  1  0.622199  0.401024  0.409988  1
  O  O198  1  0.622206  0.598873  0.409960  1
  O  O199  1  0.598950  0.377777  0.590113  1
  O  O200  1  0.748869  0.406450  0.415115  1
  O  O201  1  0.748875  0.593451  0.415085  1
  O  O202  1  0.692500  0.404373  0.246075  1
  O  O203  1  0.692506  0.595547  0.246046  1
  O  O204  1  0.698778  0.374935  0.058641  1
  O  O205  1  0.698791  0.624960  0.058605  1
  O  O206  1  0.801108  0.411386  0.152036  1
  O  O207  1  0.801116  0.588513  0.152017  1
  O  O208  1  0.713668  0.499951  0.121678  1
  O  O209  1  0.796583  0.623040  0.583092  1
  O  O210  1  0.796569  0.376879  0.583133  1
  O  O211  1  0.802902  0.499955  0.512783  1
  O  O212  1  0.873988  0.593091  0.435296  1
  O  O213  1  0.906883  0.373904  0.064769  1
  O  O214  1  0.873981  0.406800  0.435333  1
  O  O215  1  0.906885  0.625980  0.064722  1
  Si  Si216  1  0.576776  0.423199  0.500049  1
  O  O217  1  0.888975  0.499946  0.122086  1
  O  O218  1  0.907873  0.592117  0.250013  1
  O  O219  1  0.907859  0.407793  0.250049  1
  O  O220  1  0.588012  0.499954  0.519444  1
  Si  Si221  1  0.687934  0.378058  0.356088  1
  Si  Si222  1  0.687939  0.621849  0.356066  1
  Si  Si223  1  0.724033  0.423432  0.142546  1
  Si  Si224  1  0.724040  0.576472  0.142525  1
  Si  Si225  1  0.806556  0.576634  0.489530  1
  Si  Si226  1  0.806550  0.423272  0.489557  1
  Si  Si227  1  0.923453  0.621854  0.355514  1
  Si  Si228  1  0.878121  0.423372  0.144549  1
  Si  Si229  1  0.923444  0.378045  0.355541  1
  Si  Si230  1  0.878127  0.576524  0.144523  1
  Si  Si231  1  0.576781  0.576707  0.500025  1
  O  O232  1  0.500026  0.587938  0.480623  1
  O  O233  1  0.500021  0.411963  0.480650  1
  O  O234  1  0.901111  0.877762  0.090066  1
  O  O235  1  0.877857  0.901024  0.909948  1
  O  O236  1  0.593536  0.748807  0.584947  1
  O  O237  1  0.906533  0.751091  0.084945  1
  O  O238  1  0.751189  0.906452  0.915085  1
  O  O239  1  0.595623  0.692435  0.753985  1
  O  O240  1  0.904451  0.807467  0.253980  1
  O  O241  1  0.807552  0.904360  0.746040  1
  O  O242  1  0.699437  0.693581  0.644651  1
  O  O243  1  0.800635  0.806321  0.144655  1
  O  O244  1  0.693649  0.699355  0.355392  1
  O  O245  1  0.806412  0.800548  0.855381  1
  O  O246  1  0.625049  0.698705  0.941420  1
  O  O247  1  0.875018  0.801205  0.441416  1
  O  O248  1  0.801272  0.874949  0.558600  1
  O  O249  1  0.588597  0.801037  0.848031  1
  O  O250  1  0.911466  0.698866  0.348033  1
  O  O251  1  0.698943  0.911392  0.652010  1
  O  O252  1  0.786385  0.999958  0.621677  1
  Si  Si253  1  0.807495  0.807425  0.500010  1
  O  O254  1  0.703490  0.876866  0.083099  1
  O  O255  1  0.623112  0.796510  0.416932  1
  O  O256  1  0.876956  0.703397  0.916927  1
  O  O257  1  0.805246  0.694745  0.750009  1
  O  O258  1  0.694822  0.805156  0.250012  1
  O  O259  1  0.801227  0.748877  0.576619  1
  O  O260  1  0.698844  0.751030  0.076619  1
  O  O261  1  0.748947  0.801149  0.423404  1
  O  O262  1  0.751120  0.698753  0.923403  1
  Si  Si263  1  0.692573  0.692483  0.000011  1
  O  O264  1  0.626078  0.906807  0.935307  1
  O  O265  1  0.593171  0.873919  0.564732  1
  O  O266  1  0.611077  0.999956  0.622084  1
  O  O267  1  0.592193  0.907790  0.750023  1
  O  O268  1  0.912047  0.999944  0.019428  1
  Si  Si269  1  0.621931  0.687872  0.643968  1
  Si  Si270  1  0.878141  0.812029  0.143964  1
  Si  Si271  1  0.812121  0.878054  0.856057  1
  Si  Si272  1  0.576554  0.723961  0.857514  1
  Si  Si273  1  0.923512  0.775943  0.357513  1
  Si  Si274  1  0.776018  0.923436  0.642519  1
  Si  Si275  1  0.776979  0.688410  0.640736  1
  Si  Si276  1  0.723093  0.811494  0.140742  1
  Si  Si277  1  0.688481  0.776898  0.359289  1
  Si  Si278  1  0.811585  0.723005  0.859285  1
  Si  Si279  1  0.693510  0.923268  0.989534  1
  Si  Si280  1  0.576712  0.806486  0.510502  1
  Si  Si281  1  0.923354  0.693413  0.010496  1
  Si  Si282  1  0.576612  0.878049  0.855520  1
  Si  Si283  1  0.621931  0.923379  0.644526  1
  Si  Si284  1  0.923283  0.923191  0.000011  1
  O  O285  1  0.500036  0.713589  0.878374  1
  O  O286  1  0.500031  0.802828  0.487266  1
  O  O287  1  0.500038  0.888900  0.877978  1
  O  O288  1  0.697160  0.999948  0.012783  1
