# generated using pymatgen
data_SiO2
_symmetry_space_group_name_H-M   'P 1'
_cell_length_a   8.35857008
_cell_length_b   14.33942635
_cell_length_c   20.18239355
_cell_angle_alpha   90.00000000
_cell_angle_beta   90.00000000
_cell_angle_gamma   90.00000000
_symmetry_Int_Tables_number   1
_chemical_formula_structural   SiO2
_chemical_formula_sum   'Si48 O96'
_cell_volume   2419.00316369
_cell_formula_units_Z   48
loop_
 _symmetry_equiv_pos_site_id
 _symmetry_equiv_pos_as_xyz
  1  'x, y, z'
loop_
 _atom_site_type_symbol
 _atom_site_label
 _atom_site_symmetry_multiplicity
 _atom_site_fract_x
 _atom_site_fract_y
 _atom_site_fract_z
 _atom_site_occupancy
  O  O1  1  0.500123  0.750409  0.996066  1
  O  O2  1  0.000127  0.249450  0.496058  1
  O  O3  1  0.500128  0.250381  0.004027  1
  O  O4  1  0.000124  0.749408  0.504032  1
  O  O5  1  0.000129  0.744960  0.135450  1
  O  O6  1  0.500125  0.255918  0.635334  1
  O  O7  1  0.000126  0.243948  0.864756  1
  O  O8  1  0.500131  0.754875  0.364656  1
  O  O9  1  0.500116  0.937255  0.174332  1
  O  O10  1  0.000129  0.444845  0.681345  1
  O  O11  1  0.500127  0.555357  0.180727  1
  O  O12  1  0.000124  0.063572  0.673954  1
  O  O13  1  0.500122  0.436261  0.826134  1
  O  O14  1  0.000128  0.944474  0.319382  1
  O  O15  1  0.500130  0.055028  0.818735  1
  O  O16  1  0.000117  0.562586  0.325769  1
  O  O17  1  0.000121  0.928800  0.931927  1
  O  O18  1  0.500124  0.427296  0.432196  1
  O  O19  1  0.000124  0.572463  0.932091  1
  O  O20  1  0.500119  0.071192  0.432120  1
  O  O21  1  0.000121  0.428639  0.067983  1
  O  O22  1  0.500127  0.927351  0.568004  1
  O  O23  1  0.000126  0.072529  0.067900  1
  O  O24  1  0.500121  0.571034  0.568154  1
  O  O25  1  0.228335  0.750118  0.052453  1
  O  O26  1  0.728388  0.249676  0.552445  1
  O  O27  1  0.771923  0.750121  0.052449  1
  O  O28  1  0.271877  0.249670  0.552442  1
  O  O29  1  0.771872  0.250170  0.947671  1
  O  O30  1  0.271931  0.749691  0.447643  1
  O  O31  1  0.228381  0.250172  0.947671  1
  O  O32  1  0.728325  0.749698  0.447641  1
  O  O33  1  0.251493  0.839609  0.159585  1
  O  O34  1  0.763327  0.339332  0.658849  1
  O  O35  1  0.737730  0.660531  0.158930  1
  O  O36  1  0.250044  0.160228  0.659635  1
  O  O37  1  0.750021  0.339571  0.840472  1
  O  O38  1  0.237711  0.839283  0.341169  1
  O  O39  1  0.263328  0.160460  0.841230  1
  O  O40  1  0.751448  0.660214  0.340522  1
  O  O41  1  0.736928  0.160457  0.841231  1
  O  O42  1  0.248814  0.660216  0.340527  1
  O  O43  1  0.250229  0.339571  0.840470  1
  O  O44  1  0.762542  0.839277  0.341174  1
  O  O45  1  0.262521  0.660538  0.158925  1
  O  O46  1  0.750210  0.160229  0.659636  1
  O  O47  1  0.748767  0.839606  0.159584  1
  O  O48  1  0.236935  0.339333  0.658856  1
  O  O49  1  0.256290  0.959127  0.250449  1
  O  O50  1  0.743012  0.459133  0.749626  1
  O  O51  1  0.756293  0.540668  0.249646  1
  O  O52  1  0.242977  0.040720  0.750462  1
  O  O53  1  0.757278  0.040724  0.750462  1
  O  O54  1  0.243961  0.540663  0.249648  1
  O  O55  1  0.257248  0.459124  0.749623  1
  O  O56  1  0.743967  0.959132  0.250449  1
  O  O57  1  0.247750  0.008771  0.126350  1
  O  O58  1  0.749935  0.508136  0.625487  1
  O  O59  1  0.750775  0.491803  0.125485  1
  O  O60  1  0.252173  0.991015  0.626368  1
  O  O61  1  0.752208  0.508810  0.873748  1
  O  O62  1  0.250780  0.008006  0.374602  1
  O  O63  1  0.249997  0.991694  0.874625  1
  O  O64  1  0.747781  0.491050  0.373748  1
  O  O65  1  0.750255  0.991698  0.874624  1
  O  O66  1  0.252475  0.491049  0.373748  1
  O  O67  1  0.248050  0.508809  0.873747  1
  O  O68  1  0.749474  0.008005  0.374600  1
  O  O69  1  0.249476  0.491805  0.125488  1
  O  O70  1  0.748083  0.991019  0.626367  1
  O  O71  1  0.752506  0.008771  0.126351  1
  O  O72  1  0.250320  0.508136  0.625487  1
  O  O73  1  0.219209  0.999890  0.000396  1
  O  O74  1  0.719205  0.499917  0.499694  1
  O  O75  1  0.781028  0.499913  0.999672  1
  O  O76  1  0.281026  0.999887  0.500435  1
  O  O77  1  0.781050  0.999886  0.000395  1
  O  O78  1  0.281055  0.499918  0.499695  1
  O  O79  1  0.219228  0.499915  0.999670  1
  O  O80  1  0.719231  0.999884  0.500437  1
  O  O81  1  0.263549  0.841615  0.947434  1
  O  O82  1  0.764538  0.341345  0.447346  1
  O  O83  1  0.735710  0.658500  0.947354  1
  O  O84  1  0.236510  0.158164  0.447424  1
  O  O85  1  0.736516  0.341661  0.052677  1
  O  O86  1  0.235728  0.841330  0.552763  1
  O  O87  1  0.264550  0.158463  0.052759  1
  O  O88  1  0.763596  0.658208  0.552663  1
  O  O89  1  0.735699  0.158464  0.052759  1
  O  O90  1  0.236666  0.658208  0.552660  1
  O  O91  1  0.263741  0.341662  0.052677  1
  O  O92  1  0.764528  0.841332  0.552763  1
  O  O93  1  0.264547  0.658501  0.947353  1
  O  O94  1  0.763754  0.158163  0.447416  1
  O  O95  1  0.736713  0.841614  0.947437  1
  O  O96  1  0.235715  0.341343  0.447346  1
  Si  Si97  1  0.314656  0.938276  0.178186  1
  Si  Si98  1  0.814570  0.439766  0.679145  1
  Si  Si99  1  0.685704  0.560179  0.179038  1
  Si  Si100  1  0.185555  0.061791  0.678088  1
  Si  Si101  1  0.685588  0.438032  0.822014  1
  Si  Si102  1  0.185695  0.939628  0.321052  1
  Si  Si103  1  0.314575  0.060024  0.820934  1
  Si  Si104  1  0.814649  0.561563  0.321913  1
  Si  Si105  1  0.685683  0.060023  0.820932  1
  Si  Si106  1  0.185591  0.561565  0.321915  1
  Si  Si107  1  0.314659  0.438031  0.822011  1
  Si  Si108  1  0.814562  0.939618  0.321054  1
  Si  Si109  1  0.314552  0.560190  0.179038  1
  Si  Si110  1  0.814695  0.061790  0.678089  1
  Si  Si111  1  0.685580  0.938275  0.178185  1
  Si  Si112  1  0.185684  0.439770  0.679144  1
  Si  Si113  1  0.185267  0.939888  0.937002  1
  Si  Si114  1  0.685199  0.439274  0.436602  1
  Si  Si115  1  0.815023  0.560565  0.936583  1
  Si  Si116  1  0.314976  0.059907  0.437045  1
  Si  Si117  1  0.814992  0.439901  0.063057  1
  Si  Si118  1  0.315034  0.939263  0.563538  1
  Si  Si119  1  0.185202  0.060534  0.063486  1
  Si  Si120  1  0.685273  0.559931  0.563087  1
  Si  Si121  1  0.815049  0.060534  0.063485  1
  Si  Si122  1  0.314972  0.559931  0.563087  1
  Si  Si123  1  0.185253  0.439902  0.063057  1
  Si  Si124  1  0.685221  0.939263  0.563541  1
  Si  Si125  1  0.185227  0.560567  0.936581  1
  Si  Si126  1  0.685267  0.059904  0.437045  1
  Si  Si127  1  0.814977  0.939887  0.936999  1
  Si  Si128  1  0.315049  0.439274  0.436604  1
  Si  Si129  1  0.315414  0.750130  0.984113  1
  Si  Si130  1  0.815420  0.249703  0.484098  1
  Si  Si131  1  0.684832  0.750129  0.984110  1
  Si  Si132  1  0.184826  0.249703  0.484097  1
  Si  Si133  1  0.684825  0.250118  0.016016  1
  Si  Si134  1  0.184844  0.749709  0.515982  1
  Si  Si135  1  0.315429  0.250116  0.016016  1
  Si  Si136  1  0.815404  0.749711  0.515981  1
  Si  Si137  1  0.185697  0.748886  0.127451  1
  Si  Si138  1  0.685637  0.251190  0.627430  1
  Si  Si139  1  0.814560  0.748879  0.127449  1
  Si  Si140  1  0.314607  0.251195  0.627427  1
  Si  Si141  1  0.814591  0.248597  0.872680  1
  Si  Si142  1  0.314578  0.750954  0.372645  1
  Si  Si143  1  0.185663  0.248599  0.872681  1
  Si  Si144  1  0.685683  0.750946  0.372644  1
