# generated using pymatgen
data_SiO2
_symmetry_space_group_name_H-M   'P 1'
_cell_length_a   14.04861946
_cell_length_b   14.04855121
_cell_length_c   9.74334908
_cell_angle_alpha   90.00000000
_cell_angle_beta   90.00000000
_cell_angle_gamma   90.00000000
_symmetry_Int_Tables_number   1
_chemical_formula_structural   SiO2
_chemical_formula_sum   'Si32 O64'
_cell_volume   1922.97416744
_cell_formula_units_Z   32
loop_
 _symmetry_equiv_pos_site_id
 _symmetry_equiv_pos_as_xyz
  1  'x, y, z'
loop_
 _atom_site_type_symbol
 _atom_site_label
 _atom_site_symmetry_multiplicity
 _atom_site_fract_x
 _atom_site_fract_y
 _atom_site_fract_z
 _atom_site_occupancy
  O  O1  1  0.170249  0.170085  0.177787  1
  O  O2  1  0.670279  0.670095  0.677721  1
  O  O3  1  0.829855  0.170094  0.177741  1
  O  O4  1  0.329870  0.670093  0.677758  1
  O  O5  1  0.829860  0.829646  0.177722  1
  O  O6  1  0.329872  0.329661  0.677786  1
  O  O7  1  0.170254  0.829639  0.177757  1
  O  O8  1  0.670280  0.329663  0.677741  1
  O  O9  1  0.829871  0.829663  0.822329  1
  O  O10  1  0.329855  0.329638  0.322395  1
  O  O11  1  0.170279  0.829661  0.822366  1
  O  O12  1  0.670249  0.329646  0.322349  1
  O  O13  1  0.170280  0.170093  0.822394  1
  O  O14  1  0.670254  0.670093  0.322329  1
  O  O15  1  0.829871  0.170095  0.822350  1
  O  O16  1  0.329861  0.670085  0.322365  1
  O  O17  1  0.118881  0.289409  0.000089  1
  O  O18  1  0.618882  0.789414  0.500028  1
  O  O19  1  0.710554  0.118690  0.000044  1
  O  O20  1  0.210556  0.618685  0.500060  1
  O  O21  1  0.881249  0.710335  0.000014  1
  O  O22  1  0.381248  0.210330  0.500104  1
  O  O23  1  0.289575  0.881054  0.000075  1
  O  O24  1  0.789573  0.381058  0.500030  1
  O  O25  1  0.881248  0.289414  0.000040  1
  O  O26  1  0.381249  0.789409  0.500064  1
  O  O27  1  0.289573  0.118685  0.000107  1
  O  O28  1  0.789575  0.618690  0.500011  1
  O  O29  1  0.118882  0.710330  0.000050  1
  O  O30  1  0.618881  0.210335  0.500055  1
  O  O31  1  0.710556  0.881058  0.000026  1
  O  O32  1  0.210554  0.381054  0.500092  1
  O  O33  1  0.000051  0.249895  0.187708  1
  O  O34  1  0.500075  0.749887  0.687684  1
  O  O35  1  0.750096  0.999868  0.187665  1
  O  O36  1  0.250098  0.499878  0.687707  1
  O  O37  1  0.000056  0.749835  0.187680  1
  O  O38  1  0.500076  0.249871  0.687711  1
  O  O39  1  0.250010  0.999861  0.187711  1
  O  O40  1  0.750056  0.499879  0.687661  1
  O  O41  1  0.000075  0.749871  0.812400  1
  O  O42  1  0.500051  0.249835  0.312431  1
  O  O43  1  0.250056  0.999878  0.812450  1
  O  O44  1  0.750010  0.499870  0.312401  1
  O  O45  1  0.000077  0.249887  0.812428  1
  O  O46  1  0.500057  0.749894  0.312404  1
  O  O47  1  0.750098  0.999880  0.812404  1
  O  O48  1  0.250096  0.499861  0.312447  1
  O  O49  1  0.155916  0.344024  0.250096  1
  O  O50  1  0.655933  0.844036  0.750021  1
  O  O51  1  0.655918  0.155705  0.250052  1
  O  O52  1  0.155931  0.655723  0.750053  1
  O  O53  1  0.844186  0.655701  0.249999  1
  O  O54  1  0.344224  0.155727  0.750118  1
  O  O55  1  0.344188  0.844028  0.250076  1
  O  O56  1  0.844221  0.344032  0.750029  1
  O  O57  1  0.844184  0.344035  0.250028  1
  O  O58  1  0.344219  0.844031  0.750073  1
  O  O59  1  0.344182  0.155694  0.250120  1
  O  O60  1  0.844221  0.655728  0.750002  1
  O  O61  1  0.155923  0.655697  0.250052  1
  O  O62  1  0.655934  0.155724  0.750048  1
  O  O63  1  0.655920  0.844031  0.250023  1
  O  O64  1  0.155936  0.344035  0.750099  1
  Si  Si65  1  0.109699  0.264146  0.157807  1
  Si  Si66  1  0.609718  0.764149  0.657748  1
  Si  Si67  1  0.735814  0.109515  0.157764  1
  Si  Si68  1  0.235824  0.609521  0.657779  1
  Si  Si69  1  0.890414  0.735588  0.157736  1
  Si  Si70  1  0.390429  0.235605  0.657818  1
  Si  Si71  1  0.264295  0.890218  0.157790  1
  Si  Si72  1  0.764326  0.390233  0.657754  1
  Si  Si73  1  0.890409  0.264151  0.157761  1
  Si  Si74  1  0.390428  0.764149  0.657783  1
  Si  Si75  1  0.264292  0.109508  0.157819  1
  Si  Si76  1  0.764324  0.609524  0.657735  1
  Si  Si77  1  0.109703  0.735580  0.157772  1
  Si  Si78  1  0.609719  0.235608  0.657772  1
  Si  Si79  1  0.735819  0.890226  0.157745  1
  Si  Si80  1  0.235824  0.390231  0.657808  1
  Si  Si81  1  0.890428  0.735607  0.842299  1
  Si  Si82  1  0.390409  0.235581  0.342380  1
  Si  Si83  1  0.264325  0.890230  0.842352  1
  Si  Si84  1  0.764292  0.390225  0.342316  1
  Si  Si85  1  0.109719  0.264147  0.842369  1
  Si  Si86  1  0.609703  0.764153  0.342310  1
  Si  Si87  1  0.735826  0.109523  0.842327  1
  Si  Si88  1  0.235817  0.609508  0.342341  1
  Si  Si89  1  0.109718  0.735607  0.842334  1
  Si  Si90  1  0.609700  0.235586  0.342333  1
  Si  Si91  1  0.735824  0.890233  0.842308  1
  Si  Si92  1  0.235814  0.390219  0.342371  1
  Si  Si93  1  0.890429  0.264150  0.842323  1
  Si  Si94  1  0.390413  0.764144  0.342345  1
  Si  Si95  1  0.264325  0.109522  0.842381  1
  Si  Si96  1  0.764297  0.609514  0.342297  1
