# generated using pymatgen
data_SiO2
_symmetry_space_group_name_H-M   'P 1'
_cell_length_a   31.02719247
_cell_length_b   31.01613755
_cell_length_c   7.60359861
_cell_angle_alpha   90.00000000
_cell_angle_beta   90.00000000
_cell_angle_gamma   120.00000000
_symmetry_Int_Tables_number   1
_chemical_formula_structural   SiO2
_chemical_formula_sum   'Si108 O216'
_cell_volume   6336.94602841
_cell_formula_units_Z   108
loop_
 _symmetry_equiv_pos_site_id
 _symmetry_equiv_pos_as_xyz
  1  'x, y, z'
loop_
 _atom_site_type_symbol
 _atom_site_label
 _atom_site_symmetry_multiplicity
 _atom_site_fract_x
 _atom_site_fract_y
 _atom_site_fract_z
 _atom_site_occupancy
  Si  Si1  1  0.056924  0.212188  0.502250  1
  Si  Si2  1  0.056744  0.427846  0.502440  1
  O  O3  1  0.065386  0.245897  0.335361  1
  O  O4  1  0.065431  0.245940  0.669047  1
  O  O5  1  0.065389  0.402806  0.335420  1
  O  O6  1  0.065380  0.402769  0.669376  1
  O  O7  1  0.000074  0.169475  0.502275  1
  O  O8  1  0.082292  0.276985  0.002171  1
  O  O9  1  0.083135  0.389398  0.002379  1
  Si  Si10  1  0.428361  0.371328  0.499743  1
  Si  Si11  1  0.428264  0.056466  0.499407  1
  Si  Si12  1  0.371562  0.428125  0.502251  1
  O  O13  1  0.169861  0.169475  0.500773  1
  O  O14  1  0.197269  0.098349  0.499440  1
  O  O15  1  0.098676  0.196802  0.502192  1
  O  O16  1  0.246269  0.180737  0.332132  1
  O  O17  1  0.246299  0.065043  0.332113  1
  O  O18  1  0.181100  0.246085  0.335492  1
  O  O19  1  0.246552  0.180847  0.665800  1
  O  O20  1  0.181117  0.245926  0.669150  1
  O  O21  1  0.246456  0.065079  0.665792  1
  O  O22  1  0.303374  0.151453  0.219390  1
  O  O23  1  0.151736  0.303048  0.222387  1
  O  O24  1  0.151813  0.303005  0.781954  1
  O  O25  1  0.303488  0.151455  0.778945  1
  O  O26  1  0.277485  0.194991  0.999101  1
  O  O27  1  0.277439  0.081957  0.999072  1
  O  O28  1  0.195317  0.277094  0.002267  1
  O  O29  1  0.338805  0.245700  0.243933  1
  O  O30  1  0.092870  0.338370  0.246773  1
  O  O31  1  0.338787  0.092624  0.243731  1
  O  O32  1  0.245950  0.338574  0.246772  1
  O  O33  1  0.092982  0.338414  0.757843  1
  O  O34  1  0.338995  0.245700  0.754961  1
  O  O35  1  0.246043  0.338494  0.757775  1
  O  O36  1  0.338897  0.092655  0.754811  1
  O  O37  1  0.389906  0.306486  0.999674  1
  O  O38  1  0.389864  0.082897  0.999451  1
  O  O39  1  0.306744  0.389592  0.002386  1
  O  O40  1  0.403271  0.337662  0.332694  1
  O  O41  1  0.403188  0.065104  0.332492  1
  O  O42  1  0.337803  0.403054  0.335493  1
  O  O43  1  0.403376  0.337598  0.666641  1
  O  O44  1  0.337962  0.403061  0.669432  1
  O  O45  1  0.403295  0.065173  0.666454  1
  O  O46  1  0.433649  0.281070  0.221285  1
  O  O47  1  0.152345  0.433232  0.223958  1
  O  O48  1  0.433608  0.152100  0.221052  1
  O  O49  1  0.281279  0.433419  0.223819  1
  O  O50  1  0.152354  0.433252  0.780935  1
  O  O51  1  0.433807  0.281092  0.778315  1
  O  O52  1  0.281306  0.433347  0.780862  1
  O  O53  1  0.433701  0.152180  0.778030  1
  O  O54  1  0.414397  0.414169  0.500974  1
  O  O55  1  0.493097  0.246334  0.754599  1
  O  O56  1  0.484921  0.385731  0.499673  1
  O  O57  1  0.098910  0.484419  0.502527  1
  O  O58  1  0.484820  0.098657  0.499395  1
  O  O59  1  0.385935  0.484701  0.502279  1
  O  O60  1  0.492887  0.246218  0.244820  1
  O  O61  1  0.246452  0.492652  0.247565  1
  O  O62  1  0.246436  0.492588  0.757360  1
  Si  Si63  1  0.290540  0.194520  0.201029  1
  Si  Si64  1  0.095824  0.290116  0.204057  1
  Si  Si65  1  0.290534  0.095547  0.200945  1
  Si  Si66  1  0.194817  0.290257  0.204072  1
  Si  Si67  1  0.095921  0.290143  0.800353  1
  Si  Si68  1  0.290681  0.194533  0.797318  1
  Si  Si69  1  0.194876  0.290184  0.800358  1
  Si  Si70  1  0.290613  0.095541  0.797243  1
  Si  Si71  1  0.390359  0.293595  0.201563  1
  Si  Si72  1  0.096530  0.389920  0.204243  1
  Si  Si73  1  0.390320  0.096269  0.201310  1
  Si  Si74  1  0.293814  0.390125  0.204193  1
  Si  Si75  1  0.096553  0.389917  0.800540  1
  Si  Si76  1  0.390494  0.293586  0.797860  1
  Si  Si77  1  0.293878  0.390073  0.800484  1
  Si  Si78  1  0.390422  0.096333  0.797601  1
  Si  Si79  1  0.489743  0.294374  0.201693  1
  Si  Si80  1  0.195109  0.489364  0.204334  1
  Si  Si81  1  0.489701  0.194910  0.201471  1
  Si  Si82  1  0.294600  0.489537  0.204255  1
  Si  Si83  1  0.195128  0.489368  0.800651  1
  Si  Si84  1  0.489917  0.294463  0.797971  1
  Si  Si85  1  0.294578  0.489451  0.800536  1
  Si  Si86  1  0.489806  0.194965  0.797779  1
  Si  Si87  1  0.212693  0.155510  0.499355  1
  Si  Si88  1  0.212660  0.056595  0.499181  1
  Si  Si89  1  0.155834  0.212274  0.502111  1
  O  O90  1  0.000000  0.414024  0.502256  1
  O  O91  1  0.000253  0.830241  0.500076  1
  Si  Si92  1  0.057020  0.844101  0.500099  1
  Si  Si93  1  0.056787  0.628231  0.499988  1
  O  O94  1  0.065419  0.818759  0.333336  1
  O  O95  1  0.065437  0.818817  0.666988  1
  O  O96  1  0.065477  0.661895  0.332868  1
  O  O97  1  0.065508  0.661987  0.666848  1
  O  O98  1  0.082303  0.804583  0.000123  1
  O  O99  1  0.083255  0.693083  0.999888  1
  O  O100  1  0.092999  0.753827  0.244500  1
  O  O101  1  0.093043  0.753907  0.755538  1
  O  O102  1  0.169889  0.999758  0.499647  1
  O  O103  1  0.098806  0.901229  0.500057  1
  O  O104  1  0.181217  0.934444  0.333429  1
  O  O105  1  0.181202  0.934523  0.667084  1
  O  O106  1  0.151756  0.848039  0.220366  1
  O  O107  1  0.151796  0.848117  0.779932  1
  O  O108  1  0.195358  0.917555  0.000232  1
  O  O109  1  0.245955  0.906662  0.244680  1
  O  O110  1  0.246010  0.906777  0.755729  1
  O  O111  1  0.306724  0.916416  0.000253  1
  O  O112  1  0.337808  0.934126  0.333284  1
  O  O113  1  0.337893  0.934200  0.667264  1
  O  O114  1  0.281285  0.847140  0.221663  1
  O  O115  1  0.152445  0.718401  0.221411  1
  O  O116  1  0.281319  0.847222  0.778675  1
  O  O117  1  0.152468  0.718463  0.778414  1
  O  O118  1  0.385927  0.900664  0.500107  1
  O  O119  1  0.098892  0.613745  0.500087  1
  O  O120  1  0.420149  0.579708  0.502496  1
  O  O121  1  0.420247  0.840025  0.500110  1
  O  O122  1  0.159631  0.579445  0.501362  1
  O  O123  1  0.479814  0.660532  0.333247  1
  O  O124  1  0.339242  0.818485  0.332658  1
  O  O125  1  0.180995  0.519869  0.334950  1
  O  O126  1  0.339213  0.520087  0.334882  1
  O  O127  1  0.180985  0.660327  0.332255  1
  O  O128  1  0.479930  0.818793  0.333820  1
  O  O129  1  0.479911  0.660690  0.668306  1
  O  O130  1  0.339280  0.818544  0.667689  1
  O  O131  1  0.181030  0.519894  0.670095  1
  O  O132  1  0.339180  0.520030  0.669916  1
  O  O133  1  0.181045  0.660435  0.667380  1
  O  O134  1  0.479917  0.818830  0.668949  1
  O  O135  1  0.246510  0.753038  0.245114  1
  O  O136  1  0.246539  0.753130  0.754904  1
  O  O137  1  0.307673  0.804439  0.000130  1
  O  O138  1  0.195060  0.502358  0.002488  1
  O  O139  1  0.307615  0.502494  0.002368  1
  O  O140  1  0.195106  0.691958  0.999868  1
  O  O141  1  0.497447  0.804771  0.001328  1
  Si  Si142  1  0.194857  0.903913  0.202051  1
  Si  Si143  1  0.095867  0.805007  0.201980  1
  Si  Si144  1  0.194890  0.903993  0.798347  1
  Si  Si145  1  0.095907  0.805074  0.798271  1
  Si  Si146  1  0.293807  0.902974  0.202071  1
  Si  Si147  1  0.096650  0.705941  0.201761  1
  Si  Si148  1  0.293847  0.903056  0.798370  1
  Si  Si149  1  0.096673  0.706001  0.798058  1
  Si  Si150  1  0.294629  0.804361  0.201993  1
  Si  Si151  1  0.195163  0.704984  0.201738  1
  Si  Si152  1  0.294653  0.804434  0.798277  1
  Si  Si153  1  0.195190  0.705051  0.798050  1
  Si  Si154  1  0.155943  0.942948  0.500130  1
  Si  Si155  1  0.371537  0.942843  0.500163  1
  Si  Si156  1  0.472437  0.627553  0.501038  1
  Si  Si157  1  0.372286  0.844183  0.500113  1
  Si  Si158  1  0.155368  0.527256  0.502484  1
  Si  Si159  1  0.372244  0.527504  0.502423  1
  Si  Si160  1  0.155349  0.627359  0.500023  1
  Si  Si161  1  0.472498  0.844430  0.501259  1
  O  O162  1  0.497375  0.692183  0.000838  1
  O  O163  1  0.414328  0.999664  0.499767  1
  Si  Si164  1  0.527619  0.155154  0.499581  1
  O  O165  1  0.901538  0.098504  0.502110  1
  O  O166  1  0.819080  0.065215  0.335458  1
  O  O167  1  0.934869  0.180970  0.335569  1
  O  O168  1  0.819146  0.065175  0.669109  1
  O  O169  1  0.934878  0.180900  0.669198  1
  O  O170  1  0.848483  0.151573  0.222470  1
  O  O171  1  0.848502  0.151543  0.782077  1
  O  O172  1  0.804918  0.082081  0.002234  1
  O  O173  1  0.917964  0.195103  0.002337  1
  O  O174  1  0.754256  0.092904  0.246469  1
  O  O175  1  0.907106  0.245761  0.246635  1
  O  O176  1  0.754304  0.092882  0.757465  1
  O  O177  1  0.907114  0.245715  0.757680  1
  O  O178  1  0.693509  0.083100  0.001718  1
  O  O179  1  0.916735  0.306464  0.001981  1
  O  O180  1  0.662342  0.065360  0.334695  1
  O  O181  1  0.934482  0.337635  0.334952  1
  O  O182  1  0.662396  0.065341  0.668670  1
  O  O183  1  0.934466  0.337572  0.668957  1
  O  O184  1  0.718802  0.152323  0.223185  1
  O  O185  1  0.847527  0.281058  0.223427  1
  O  O186  1  0.718819  0.152310  0.780185  1
  O  O187  1  0.847530  0.281041  0.780396  1
  Si  Si188  1  0.627828  0.472268  0.500778  1
  O  O189  1  0.692433  0.497216  0.000985  1
  O  O190  1  0.614187  0.098791  0.501801  1
  O  O191  1  0.901052  0.385772  0.501994  1
  O  O192  1  0.579897  0.420053  0.499336  1
  O  O193  1  0.579820  0.159479  0.500553  1
  O  O194  1  0.840268  0.420044  0.500617  1
  O  O195  1  0.520296  0.338975  0.332385  1
  O  O196  1  0.660755  0.180892  0.334127  1
  O  O197  1  0.818948  0.479703  0.333240  1
  O  O198  1  0.660948  0.479740  0.333492  1
  O  O199  1  0.818943  0.339088  0.334326  1
  O  O200  1  0.520223  0.180826  0.332059  1
  O  O201  1  0.520416  0.339125  0.667400  1
  O  O202  1  0.660786  0.180927  0.669249  1
  O  O203  1  0.818959  0.479643  0.668320  1
  O  O204  1  0.660789  0.479619  0.668580  1
  O  O205  1  0.818936  0.339096  0.669435  1
  O  O206  1  0.520270  0.180799  0.667174  1
  O  O207  1  0.753448  0.246386  0.246859  1
  Si  Si208  1  0.844584  0.372131  0.501814  1
  O  O209  1  0.753473  0.246383  0.756676  1
  O  O210  1  0.502821  0.307452  0.999900  1
  O  O211  1  0.692336  0.194972  0.001665  1
  O  O212  1  0.804949  0.497247  0.000772  1
  O  O213  1  0.804869  0.307512  0.001832  1
  O  O214  1  0.502743  0.194886  0.999666  1
  Si  Si215  1  0.805390  0.095703  0.204058  1
  Si  Si216  1  0.904360  0.194636  0.204176  1
  Si  Si217  1  0.805412  0.095668  0.800358  1
  Si  Si218  1  0.904374  0.194607  0.800463  1
  Si  Si219  1  0.706373  0.096519  0.203579  1
  Si  Si220  1  0.903347  0.293583  0.203844  1
  Si  Si221  1  0.706405  0.096512  0.799876  1
  Si  Si222  1  0.903338  0.293544  0.800143  1
  Si  Si223  1  0.705375  0.195045  0.203528  1
  Si  Si224  1  0.804797  0.294461  0.203691  1
  Si  Si225  1  0.705396  0.195035  0.799834  1
  Si  Si226  1  0.804807  0.294457  0.799985  1
  Si  Si227  1  0.844407  0.056770  0.502138  1
  Si  Si228  1  0.943311  0.155637  0.502274  1
  Si  Si229  1  0.628678  0.056683  0.501759  1
  Si  Si230  1  0.943170  0.371302  0.502043  1
  Si  Si231  1  0.527748  0.372098  0.499711  1
  Si  Si232  1  0.627751  0.155250  0.501673  1
  Si  Si233  1  0.844551  0.472235  0.500691  1
  O  O234  1  0.830450  0.999955  0.501801  1
  O  O235  1  0.830495  0.830292  0.500730  1
  O  O236  1  0.901694  0.802930  0.500195  1
  O  O237  1  0.803035  0.901381  0.501361  1
  O  O238  1  0.934957  0.753851  0.332826  1
  O  O239  1  0.753828  0.818905  0.334772  1
  O  O240  1  0.819365  0.753911  0.332824  1
  O  O241  1  0.753907  0.934713  0.334815  1
  O  O242  1  0.754000  0.818998  0.668422  1
  O  O243  1  0.934934  0.753672  0.666470  1
  O  O244  1  0.753940  0.934691  0.668455  1
  O  O245  1  0.819200  0.753650  0.666483  1
  O  O246  1  0.848610  0.696787  0.219992  1
  O  O247  1  0.696896  0.848337  0.221735  1
  O  O248  1  0.696948  0.848340  0.781355  1
  O  O249  1  0.848579  0.696678  0.779613  1
  O  O250  1  0.918067  0.722687  0.999744  1
  O  O251  1  0.722841  0.804778  0.001528  1
  O  O252  1  0.805081  0.722698  0.999769  1
  O  O253  1  0.722854  0.917830  0.001608  1
  O  O254  1  0.907319  0.661297  0.244601  1
  O  O255  1  0.661320  0.754105  0.245702  1
  O  O256  1  0.754428  0.661356  0.244773  1
  O  O257  1  0.661391  0.907031  0.246026  1
  O  O258  1  0.661448  0.754151  0.756709  1
  O  O259  1  0.907261  0.661153  0.755641  1
  O  O260  1  0.661424  0.907038  0.757053  1
  O  O261  1  0.754358  0.661157  0.755764  1
  O  O262  1  0.916912  0.610118  0.000460  1
  O  O263  1  0.610379  0.693357  0.000932  1
  O  O264  1  0.693612  0.610276  0.000687  1
  O  O265  1  0.610349  0.916704  0.001481  1
  O  O266  1  0.934616  0.596723  0.333545  1
  O  O267  1  0.596925  0.662179  0.333904  1
  O  O268  1  0.662508  0.596910  0.333780  1
  O  O269  1  0.596912  0.934419  0.334467  1
  O  O270  1  0.597012  0.662243  0.667880  1
  O  O271  1  0.934597  0.596611  0.667520  1
  O  O272  1  0.596938  0.934432  0.668451  1
  O  O273  1  0.662430  0.596782  0.667730  1
  O  O274  1  0.847716  0.566412  0.222103  1
  O  O275  1  0.566444  0.718635  0.222400  1
  O  O276  1  0.718935  0.566427  0.222294  1
  O  O277  1  0.566542  0.847441  0.222914  1
  O  O278  1  0.566543  0.718713  0.779423  1
  O  O279  1  0.847651  0.566311  0.779079  1
  O  O280  1  0.566562  0.847487  0.779890  1
  O  O281  1  0.718861  0.566280  0.779320  1
  O  O282  1  0.585857  0.999879  0.501600  1
  O  O283  1  0.585937  0.585713  0.500828  1
  O  O284  1  0.901024  0.515031  0.500477  1
  O  O285  1  0.515329  0.613998  0.501073  1
  O  O286  1  0.614288  0.515174  0.500634  1
  O  O287  1  0.515313  0.900921  0.501389  1
  O  O288  1  0.753632  0.507082  0.245911  1
  O  O289  1  0.507095  0.753290  0.246190  1
  O  O290  1  0.507177  0.753394  0.756022  1
  O  O291  1  0.753523  0.506911  0.755747  1
  Si  Si292  1  0.571888  0.943072  0.501481  1
  Si  Si293  1  0.628783  0.571782  0.500641  1
  Si  Si294  1  0.904485  0.709607  0.201635  1
  Si  Si295  1  0.709676  0.805243  0.203339  1
  Si  Si296  1  0.805571  0.709638  0.201690  1
  Si  Si297  1  0.709720  0.904232  0.203455  1
  Si  Si298  1  0.709772  0.805272  0.799628  1
  Si  Si299  1  0.904455  0.709507  0.797930  1
  Si  Si300  1  0.709740  0.904223  0.799753  1
  Si  Si301  1  0.805520  0.709495  0.797981  1
  Si  Si302  1  0.903545  0.609681  0.202308  1
  Si  Si303  1  0.609813  0.706222  0.202785  1
  Si  Si304  1  0.706518  0.609801  0.202536  1
  Si  Si305  1  0.609829  0.903288  0.203328  1
  Si  Si306  1  0.609891  0.706270  0.799093  1
  Si  Si307  1  0.903498  0.609576  0.798603  1
  Si  Si308  1  0.609863  0.903316  0.799623  1
  Si  Si309  1  0.706462  0.609671  0.798840  1
  Si  Si310  1  0.804928  0.510284  0.202591  1
  Si  Si311  1  0.510309  0.705188  0.202744  1
  Si  Si312  1  0.705523  0.510277  0.202781  1
  Si  Si313  1  0.510421  0.804680  0.203173  1
  Si  Si314  1  0.510407  0.705281  0.799028  1
  Si  Si315  1  0.804868  0.510190  0.798887  1
  Si  Si316  1  0.510439  0.804730  0.799475  1
  Si  Si317  1  0.705435  0.510134  0.799074  1
  Si  Si318  1  0.943413  0.787499  0.499903  1
  Si  Si319  1  0.787640  0.844231  0.501361  1
  Si  Si320  1  0.844551  0.787511  0.500015  1
  Si  Si321  1  0.787641  0.943131  0.501583  1
  Si  Si322  1  0.943216  0.571595  0.500396  1
  Si  Si323  1  0.571929  0.628517  0.500983  1
  O  O324  1  0.999973  0.585465  0.500259  1
