# generated using pymatgen
data_SiO2
_symmetry_space_group_name_H-M   'P 1'
_cell_length_a   12.28559825
_cell_length_b   12.28579859
_cell_length_c   30.61891400
_cell_angle_alpha   90.00000000
_cell_angle_beta   90.00000000
_cell_angle_gamma   120.00000000
_symmetry_Int_Tables_number   1
_chemical_formula_structural   SiO2
_chemical_formula_sum   'Si72 O144'
_cell_volume   4002.39655057
_cell_formula_units_Z   72
loop_
 _symmetry_equiv_pos_site_id
 _symmetry_equiv_pos_as_xyz
  1  'x, y, z'
loop_
 _atom_site_type_symbol
 _atom_site_label
 _atom_site_symmetry_multiplicity
 _atom_site_fract_x
 _atom_site_fract_y
 _atom_site_fract_z
 _atom_site_occupancy
  O  O1  1  0.117487  0.879997  0.006209  1
  O  O2  1  0.117158  0.235000  0.006365  1
  O  O3  1  0.762546  0.880462  0.006318  1
  O  O4  1  0.001605  0.647302  0.124337  1
  O  O5  1  0.350962  0.352096  0.124555  1
  O  O6  1  0.645653  0.997041  0.124779  1
  O  O7  1  0.350430  0.996256  0.124399  1
  O  O8  1  0.645762  0.646715  0.124652  1
  O  O9  1  0.000592  0.351943  0.124820  1
  O  O10  1  0.902098  0.450022  0.077926  1
  O  O11  1  0.547878  0.449942  0.077883  1
  O  O12  1  0.547588  0.095591  0.077913  1
  O  O13  1  0.784997  0.569918  0.090167  1
  O  O14  1  0.427803  0.212783  0.090148  1
  O  O15  1  0.784538  0.213084  0.090302  1
  O  O16  1  0.443467  0.554269  0.167133  1
  O  O17  1  0.443351  0.887189  0.167196  1
  O  O18  1  0.110477  0.554305  0.167211  1
  O  O19  1  0.587910  0.792945  0.167753  1
  O  O20  1  0.204797  0.792875  0.168001  1
  O  O21  1  0.204806  0.409858  0.167758  1
  O  O22  1  0.646210  0.646346  0.208621  1
  O  O23  1  0.351415  0.998555  0.208373  1
  O  O24  1  0.000115  0.351635  0.208797  1
  O  O25  1  0.351339  0.351326  0.208516  1
  O  O26  1  0.998945  0.646164  0.208312  1
  O  O27  1  0.645977  0.997625  0.208766  1
  Si  Si28  1  0.998996  0.250061  0.000313  1
  O  O29  1  0.412159  0.205257  0.248874  1
  O  O30  1  0.792002  0.205552  0.248580  1
  O  O31  1  0.792209  0.585251  0.248854  1
  O  O32  1  0.978713  0.664489  0.041428  1
  O  O33  1  0.332762  0.311919  0.041713  1
  O  O34  1  0.685873  0.018786  0.041902  1
  O  O35  1  0.333007  0.018822  0.041495  1
  O  O36  1  0.685854  0.665114  0.041794  1
  O  O37  1  0.978886  0.311697  0.041950  1
  Si  Si38  1  0.917491  0.583605  0.083278  1
  Si  Si39  1  0.414317  0.331749  0.083392  1
  Si  Si40  1  0.665855  0.080451  0.083549  1
  Si  Si41  1  0.414030  0.080238  0.083305  1
  Si  Si42  1  0.666065  0.583481  0.083447  1
  Si  Si43  1  0.917202  0.331746  0.083584  1
  Si  Si44  1  0.583607  0.664154  0.166733  1
  Si  Si45  1  0.333460  0.917450  0.166661  1
  Si  Si46  1  0.080336  0.414204  0.166862  1
  Si  Si47  1  0.333580  0.414134  0.166678  1
  Si  Si48  1  0.080236  0.664205  0.166640  1
  Si  Si49  1  0.583465  0.917362  0.166838  1
  Si  Si50  1  0.747691  0.747335  0.000257  1
  Si  Si51  1  0.250258  0.249815  0.000253  1
  Si  Si52  1  0.747522  0.998640  0.000275  1
  Si  Si53  1  0.250426  0.998468  0.000058  1
  Si  Si54  1  0.999001  0.747093  0.000005  1
  O  O55  1  0.117298  0.879598  0.493423  1
  O  O56  1  0.117200  0.236933  0.493783  1
  O  O57  1  0.759714  0.879472  0.493808  1
  O  O58  1  0.002167  0.647906  0.376130  1
  O  O59  1  0.348796  0.353449  0.376318  1
  O  O60  1  0.643781  0.994006  0.376607  1
  O  O61  1  0.349238  0.994828  0.376191  1
  O  O62  1  0.643489  0.648389  0.376414  1
  O  O63  1  0.003163  0.353404  0.376658  1
  O  O64  1  0.899274  0.449091  0.421898  1
  O  O65  1  0.547506  0.449396  0.422019  1
  O  O66  1  0.547996  0.097749  0.421923  1
  O  O67  1  0.784494  0.571495  0.409545  1
  O  O68  1  0.425475  0.212421  0.409594  1
  O  O69  1  0.785129  0.211926  0.409739  1
  O  O70  1  0.443094  0.554111  0.332704  1
  O  O71  1  0.443445  0.888055  0.332829  1
  O  O72  1  0.109206  0.553828  0.332892  1
  O  O73  1  0.586778  0.792853  0.331304  1
  O  O74  1  0.204692  0.792582  0.331575  1
  O  O75  1  0.204360  0.410438  0.331365  1
  O  O76  1  0.648444  0.645206  0.292688  1
  O  O77  1  0.351864  0.001178  0.292460  1
  O  O78  1  0.994915  0.348540  0.292896  1
  O  O79  1  0.351993  0.349003  0.292584  1
  O  O80  1  0.996335  0.645567  0.292404  1
  O  O81  1  0.648880  0.002445  0.292861  1
  O  O82  1  0.887835  0.443153  0.250185  1
  O  O83  1  0.554464  0.442994  0.250321  1
  O  O84  1  0.976832  0.663394  0.458797  1
  O  O85  1  0.333391  0.312724  0.459052  1
  O  O86  1  0.683912  0.020087  0.459384  1
  O  O87  1  0.333681  0.020064  0.458871  1
  O  O88  1  0.684131  0.663299  0.459128  1
  O  O89  1  0.976697  0.312977  0.459431  1
  Si  Si90  1  0.916189  0.583405  0.416746  1
  Si  Si91  1  0.413218  0.331954  0.416947  1
  Si  Si92  1  0.665227  0.080413  0.417105  1
  Si  Si93  1  0.413649  0.080775  0.416816  1
  Si  Si94  1  0.664947  0.583696  0.416974  1
  Si  Si95  1  0.916607  0.331851  0.417124  1
  Si  Si96  1  0.583091  0.664346  0.333593  1
  Si  Si97  1  0.333074  0.917580  0.333587  1
  Si  Si98  1  0.079412  0.413843  0.333807  1
  Si  Si99  1  0.332868  0.414111  0.333561  1
  Si  Si100  1  0.079690  0.664206  0.333586  1
  Si  Si101  1  0.583431  0.917833  0.333738  1
  Si  Si102  1  0.414186  0.079533  0.250130  1
  Si  Si103  1  0.664455  0.583206  0.250267  1
  Si  Si104  1  0.917918  0.333074  0.250252  1
  O  O105  1  0.554382  0.109742  0.250245  1
  Si  Si106  1  0.998205  0.747271  0.499926  1
  Si  Si107  1  0.249628  0.998662  0.499957  1
  Si  Si108  1  0.664463  0.079652  0.250260  1
  Si  Si109  1  0.917990  0.583323  0.250071  1
  Si  Si110  1  0.414236  0.333027  0.250220  1
  O  O111  1  0.879794  0.116844  0.506517  1
  O  O112  1  0.879994  0.762134  0.506215  1
  O  O113  1  0.234777  0.116896  0.506187  1
  O  O114  1  0.997777  0.351623  0.624967  1
  O  O115  1  0.647116  0.644504  0.624625  1
  O  O116  1  0.351826  0.001139  0.624144  1
  O  O117  1  0.644925  0.998949  0.624914  1
  O  O118  1  0.351962  0.349517  0.624588  1
  O  O119  1  0.995026  0.644455  0.624064  1
  O  O120  1  0.095912  0.547441  0.577835  1
  O  O121  1  0.450133  0.546615  0.577995  1
  O  O122  1  0.448957  0.900446  0.577861  1
  O  O123  1  0.213266  0.427617  0.590288  1
  O  O124  1  0.569127  0.783419  0.590341  1
  O  O125  1  0.211944  0.784429  0.590225  1
  O  O126  1  0.554162  0.442217  0.667216  1
  O  O127  1  0.552890  0.109288  0.667400  1
  O  O128  1  0.887371  0.443564  0.667444  1
  O  O129  1  0.408711  0.203274  0.668424  1
  O  O130  1  0.792152  0.204401  0.666255  1
  O  O131  1  0.793064  0.587364  0.668517  1
  O  O132  1  0.351138  0.351039  0.708513  1
  O  O133  1  0.647538  0.001192  0.708867  1
  O  O134  1  0.001571  0.648476  0.707865  1
  O  O135  1  0.645493  0.645299  0.708533  1
  O  O136  1  0.995392  0.348857  0.708929  1
  O  O137  1  0.348199  0.995158  0.707942  1
  O  O138  1  0.585119  0.792136  0.748370  1
  Si  Si139  1  0.249494  0.249987  0.500173  1
  O  O140  1  0.018500  0.331959  0.542062  1
  O  O141  1  0.664823  0.685107  0.541783  1
  O  O142  1  0.311549  0.977923  0.541389  1
  O  O143  1  0.664489  0.978086  0.542025  1
  O  O144  1  0.311609  0.332036  0.541714  1
  O  O145  1  0.018755  0.685072  0.541315  1
  Si  Si146  1  0.080742  0.414030  0.583597  1
  Si  Si147  1  0.583495  0.664964  0.583543  1
  Si  Si148  1  0.331153  0.916580  0.583207  1
  Si  Si149  1  0.582481  0.915827  0.583579  1
  Si  Si150  1  0.331728  0.413271  0.583496  1
  Si  Si151  1  0.079791  0.665247  0.583171  1
  Si  Si152  1  0.413865  0.332466  0.666825  1
  Si  Si153  1  0.663337  0.079902  0.666667  1
  Si  Si154  1  0.917920  0.583804  0.666714  1
  Si  Si155  1  0.664002  0.582478  0.666861  1
  Si  Si156  1  0.916750  0.333121  0.666707  1
  Si  Si157  1  0.412582  0.078571  0.666724  1
  Si  Si158  1  0.998044  0.249997  0.500447  1
  O  O159  1  0.204496  0.411446  0.748424  1
  Si  Si160  1  0.746628  0.998616  0.500448  1
  Si  Si161  1  0.746824  0.747260  0.500232  1
  O  O162  1  0.879653  0.117967  0.993658  1
  O  O163  1  0.879998  0.760576  0.993725  1
  O  O164  1  0.236987  0.117489  0.993763  1
  O  O165  1  0.994474  0.348822  0.876650  1
  O  O166  1  0.648011  0.644176  0.876376  1
  O  O167  1  0.353401  0.002716  0.875958  1
  O  O168  1  0.648287  0.002492  0.876572  1
  O  O169  1  0.353020  0.349126  0.876350  1
  O  O170  1  0.994657  0.643960  0.875886  1
  O  O171  1  0.097487  0.548329  0.921872  1
  O  O172  1  0.449500  0.547751  0.922187  1
  O  O173  1  0.449074  0.899852  0.921928  1
  O  O174  1  0.212420  0.425978  0.909846  1
  O  O175  1  0.571324  0.784838  0.909925  1
  O  O176  1  0.212123  0.785271  0.909391  1
  O  O177  1  0.553367  0.443749  0.832697  1
  O  O178  1  0.554910  0.109867  0.832965  1
  O  O179  1  0.887034  0.442119  0.833051  1
  O  O180  1  0.411356  0.205401  0.831519  1
  O  O181  1  0.793355  0.203622  0.831606  1
  O  O182  1  0.791690  0.585881  0.831576  1
  O  O183  1  0.348206  0.351810  0.792570  1
  O  O184  1  0.645076  0.994792  0.792864  1
  O  O185  1  0.998279  0.645484  0.791971  1
  O  O186  1  0.644969  0.648733  0.792582  1
  O  O187  1  0.002053  0.351884  0.792941  1
  O  O188  1  0.351247  0.998386  0.792046  1
  O  O189  1  0.443448  0.887814  0.750088  1
  O  O190  1  0.108834  0.553186  0.750032  1
  Si  Si191  1  0.582676  0.664195  0.750116  1
  Si  Si192  1  0.079456  0.663709  0.750268  1
  O  O193  1  0.020520  0.334692  0.959374  1
  O  O194  1  0.663691  0.684551  0.959161  1
  O  O195  1  0.312784  0.977624  0.958767  1
  O  O196  1  0.662937  0.977109  0.959317  1
  O  O197  1  0.312768  0.333617  0.959103  1
  O  O198  1  0.019741  0.684700  0.958702  1
  Si  Si199  1  0.080736  0.414001  0.917145  1
  Si  Si200  1  0.583686  0.665324  0.917109  1
  Si  Si201  1  0.331827  0.916948  0.916653  1
  Si  Si202  1  0.583381  0.916570  0.917156  1
  Si  Si203  1  0.331924  0.413589  0.917054  1
  Si  Si204  1  0.080400  0.665580  0.916598  1
  Si  Si205  1  0.413640  0.333224  0.833580  1
  Si  Si206  1  0.664533  0.079181  0.833816  1
  Si  Si207  1  0.916424  0.582008  0.833515  1
  Si  Si208  1  0.663814  0.583506  0.833600  1
  Si  Si209  1  0.917725  0.332490  0.833896  1
  Si  Si210  1  0.415058  0.080583  0.833499  1
  O  O211  1  0.205770  0.790897  0.751813  1
  Si  Si212  1  0.332947  0.917229  0.750326  1
  Si  Si213  1  0.583666  0.918136  0.750163  1
  Si  Si214  1  0.078540  0.412981  0.750192  1
  Si  Si215  1  0.332475  0.413952  0.750117  1
  O  O216  1  0.442376  0.554261  0.750282  1
