# generated using pymatgen
data_SiO2
_symmetry_space_group_name_H-M   'P 1'
_cell_length_a   18.08780190
_cell_length_b   18.09186212
_cell_length_c   7.53764703
_cell_angle_alpha   90.00000000
_cell_angle_beta   90.00000000
_cell_angle_gamma   120.00000000
_symmetry_Int_Tables_number   1
_chemical_formula_structural   SiO2
_chemical_formula_sum   'Si36 O72'
_cell_volume   2136.16841933
_cell_formula_units_Z   36
loop_
 _symmetry_equiv_pos_site_id
 _symmetry_equiv_pos_as_xyz
  1  'x, y, z'
loop_
 _atom_site_type_symbol
 _atom_site_label
 _atom_site_symmetry_multiplicity
 _atom_site_fract_x
 _atom_site_fract_y
 _atom_site_fract_z
 _atom_site_occupancy
  Si  Si1  1  0.162869  0.494346  0.751607  1
  O  O2  1  0.120855  0.437145  0.920765  1
  O  O3  1  0.120854  0.437143  0.582453  1
  O  O4  1  0.166945  0.332695  0.021368  1
  O  O5  1  0.166944  0.332694  0.481843  1
  O  O6  1  0.097501  0.380938  0.251610  1
  Si  Si7  1  0.095263  0.358430  0.047737  1
  Si  Si8  1  0.095261  0.358428  0.455482  1
  O  O9  1  0.000055  0.287551  0.001612  1
  O  O10  1  0.000052  0.287550  0.501613  1
  Si  Si11  1  0.162891  0.666266  0.751588  1
  O  O12  1  0.120873  0.681458  0.920742  1
  O  O13  1  0.120874  0.681455  0.582428  1
  O  O14  1  0.166901  0.831971  0.021345  1
  O  O15  1  0.166902  0.831969  0.481826  1
  O  O16  1  0.097501  0.714296  0.251586  1
  O  O17  1  0.153655  0.575695  0.751599  1
  Si  Si18  1  0.095247  0.734558  0.047713  1
  Si  Si19  1  0.095248  0.734556  0.455459  1
  O  O20  1  0.000021  0.710185  0.001592  1
  O  O21  1  0.000023  0.710186  0.501590  1
  Si  Si22  1  0.264360  0.358407  0.455475  1
  O  O23  1  0.288652  0.287511  0.501599  1
  O  O24  1  0.288653  0.287512  0.001595  1
  O  O25  1  0.438234  0.316243  0.420751  1
  O  O26  1  0.317514  0.437120  0.920760  1
  O  O27  1  0.438209  0.119647  0.420747  1
  O  O28  1  0.438236  0.316245  0.082430  1
  O  O29  1  0.438214  0.119649  0.082424  1
  O  O30  1  0.317514  0.437120  0.582447  1
  O  O31  1  0.333734  0.165723  0.521345  1
  O  O32  1  0.333737  0.165725  0.981833  1
  O  O33  1  0.382016  0.283394  0.751591  1
  O  O34  1  0.284638  0.380912  0.251602  1
  O  O35  1  0.381990  0.096301  0.751586  1
  Si  Si36  1  0.359497  0.263133  0.547717  1
  Si  Si37  1  0.264361  0.358406  0.047730  1
  Si  Si38  1  0.359474  0.094053  0.547712  1
  Si  Si39  1  0.359498  0.263134  0.955466  1
  Si  Si40  1  0.359477  0.094056  0.955461  1
  Si  Si41  1  0.332724  0.494326  0.751604  1
  Si  Si42  1  0.495451  0.331461  0.251592  1
  Si  Si43  1  0.495430  0.161627  0.251590  1
  O  O44  1  0.288612  0.998851  0.501588  1
  O  O45  1  0.317476  0.878108  0.920744  1
  O  O46  1  0.317479  0.878105  0.582423  1
  O  O47  1  0.284591  0.901435  0.251584  1
  O  O48  1  0.481691  0.739725  0.751612  1
  O  O49  1  0.259273  0.739745  0.751587  1
  O  O50  1  0.259253  0.517240  0.751605  1
  O  O51  1  0.423325  0.845406  0.751600  1
  O  O52  1  0.423306  0.575676  0.751606  1
  Si  Si53  1  0.264313  0.903668  0.047711  1
  Si  Si54  1  0.264315  0.903666  0.455458  1
  Si  Si55  1  0.332714  0.836130  0.751587  1
  O  O56  1  0.288614  0.998854  0.001585  1
  O  O57  1  0.682596  0.119630  0.420780  1
  O  O58  1  0.682599  0.119628  0.082459  1
  O  O59  1  0.715484  0.096300  0.751619  1
  O  O60  1  0.518383  0.258011  0.251591  1
  O  O61  1  0.740802  0.257991  0.251616  1
  O  O62  1  0.740822  0.480496  0.251599  1
  O  O63  1  0.576750  0.152329  0.251602  1
  O  O64  1  0.576769  0.422060  0.251597  1
  Si  Si65  1  0.735760  0.094070  0.547745  1
  Si  Si66  1  0.735762  0.094068  0.955492  1
  Si  Si67  1  0.667360  0.161606  0.251615  1
  O  O68  1  0.711422  0.710224  0.001608  1
  O  O69  1  0.711463  0.998885  0.501615  1
  O  O70  1  0.711461  0.998882  0.001617  1
  O  O71  1  0.711423  0.710224  0.501604  1
  O  O72  1  0.561839  0.681491  0.920773  1
  O  O73  1  0.561861  0.878086  0.920778  1
  O  O74  1  0.682561  0.560616  0.420758  1
  O  O75  1  0.561841  0.681493  0.582453  1
  O  O76  1  0.682561  0.560616  0.082444  1
  O  O77  1  0.561866  0.878088  0.582455  1
  O  O78  1  0.666338  0.832011  0.021369  1
  O  O79  1  0.666341  0.832013  0.481858  1
  O  O80  1  0.618059  0.714342  0.251612  1
  O  O81  1  0.618084  0.901435  0.251617  1
  O  O82  1  0.715438  0.616824  0.751601  1
  Si  Si83  1  0.640576  0.734602  0.047738  1
  Si  Si84  1  0.640598  0.903680  0.047742  1
  Si  Si85  1  0.735715  0.639329  0.547728  1
  Si  Si86  1  0.640578  0.734603  0.455485  1
  Si  Si87  1  0.735714  0.639330  0.955474  1
  Si  Si88  1  0.640601  0.903682  0.455490  1
  Si  Si89  1  0.504645  0.836109  0.751613  1
  Si  Si90  1  0.504624  0.666275  0.751611  1
  Si  Si91  1  0.667351  0.503410  0.251600  1
  Si  Si92  1  0.837184  0.331470  0.251616  1
  O  O93  1  0.879201  0.316282  0.420776  1
  O  O94  1  0.879202  0.316279  0.082461  1
  O  O95  1  0.833173  0.165767  0.521377  1
  O  O96  1  0.833174  0.165765  0.981858  1
  O  O97  1  0.902574  0.283440  0.751618  1
  O  O98  1  0.846420  0.422041  0.251605  1
  Si  Si99  1  0.904828  0.263180  0.547744  1
  Si  Si100  1  0.904828  0.263178  0.955490  1
  Si  Si101  1  0.904812  0.639306  0.955468  1
  O  O102  1  0.879222  0.560594  0.420750  1
  O  O103  1  0.879221  0.560591  0.082440  1
  O  O104  1  0.833131  0.665041  0.521361  1
  O  O105  1  0.833130  0.665040  0.981836  1
  O  O106  1  0.902574  0.616799  0.751594  1
  Si  Si107  1  0.904815  0.639308  0.547722  1
  Si  Si108  1  0.837206  0.503389  0.251597  1
