# generated using pymatgen
data_SiO2
_symmetry_space_group_name_H-M   'P 1'
_cell_length_a   4.91665573
_cell_length_b   8.63711012
_cell_length_c   14.18479336
_cell_angle_alpha   90.00000000
_cell_angle_beta   90.00000000
_cell_angle_gamma   90.00000000
_symmetry_Int_Tables_number   1
_chemical_formula_structural   SiO2
_chemical_formula_sum   'Si12 O24'
_cell_volume   602.367135549
_cell_formula_units_Z   12
loop_
 _symmetry_equiv_pos_site_id
 _symmetry_equiv_pos_as_xyz
  1  'x, y, z'
loop_
 _atom_site_type_symbol
 _atom_site_label
 _atom_site_symmetry_multiplicity
 _atom_site_fract_x
 _atom_site_fract_y
 _atom_site_fract_z
 _atom_site_occupancy
  O  O1  1  0.161880  0.278727  0.268568  1
  O  O2  1  0.854352  0.719861  0.269931  1
  O  O3  1  0.354336  0.778634  0.230202  1
  O  O4  1  0.661862  0.219761  0.230690  1
  O  O5  1  0.854334  0.721182  0.730201  1
  O  O6  1  0.161860  0.280054  0.730690  1
  O  O7  1  0.661878  0.221088  0.768568  1
  O  O8  1  0.354350  0.779955  0.769932  1
  O  O9  1  0.316057  0.310493  0.098804  1
  O  O10  1  0.702066  0.681631  0.100637  1
  O  O11  1  0.201973  0.817571  0.399450  1
  O  O12  1  0.815997  0.188723  0.400494  1
  O  O13  1  0.701972  0.682244  0.899450  1
  O  O14  1  0.315996  0.311093  0.900494  1
  O  O15  1  0.816057  0.189322  0.598803  1
  O  O16  1  0.202065  0.818185  0.600637  1
  O  O17  1  0.507374  0.498198  0.225528  1
  O  O18  1  0.007237  0.000304  0.274169  1
  O  O19  1  0.507235  0.499512  0.774169  1
  O  O20  1  0.007372  0.001618  0.725528  1
  O  O21  1  0.953671  0.983576  0.499872  1
  O  O22  1  0.453671  0.516240  0.999873  1
  O  O23  1  0.458711  0.027703  0.499815  1
  O  O24  1  0.958710  0.472113  0.999815  1
  Si  Si25  1  0.412524  0.326991  0.205642  1
  Si  Si26  1  0.603567  0.669702  0.207662  1
  Si  Si27  1  0.103536  0.828914  0.292396  1
  Si  Si28  1  0.912494  0.171632  0.293693  1
  Si  Si29  1  0.603534  0.670902  0.792396  1
  Si  Si30  1  0.412492  0.328183  0.793693  1
  Si  Si31  1  0.912522  0.172825  0.705642  1
  Si  Si32  1  0.103565  0.830113  0.707661  1
  Si  Si33  1  0.230259  0.897406  0.499956  1
  Si  Si34  1  0.741484  0.115109  0.499730  1
  Si  Si35  1  0.241484  0.384707  0.999731  1
  Si  Si36  1  0.730258  0.602409  0.999956  1
