# generated using pymatgen
data_SiO2
_symmetry_space_group_name_H-M   'P 1'
_cell_length_a   5.06243706
_cell_length_b   21.75003896
_cell_length_c   11.18977051
_cell_angle_alpha   90.00000000
_cell_angle_beta   90.00000000
_cell_angle_gamma   90.00000000
_symmetry_Int_Tables_number   1
_chemical_formula_structural   SiO2
_chemical_formula_sum   'Si24 O48'
_cell_volume   1232.0855268
_cell_formula_units_Z   24
loop_
 _symmetry_equiv_pos_site_id
 _symmetry_equiv_pos_as_xyz
  1  'x, y, z'
loop_
 _atom_site_type_symbol
 _atom_site_label
 _atom_site_symmetry_multiplicity
 _atom_site_fract_x
 _atom_site_fract_y
 _atom_site_fract_z
 _atom_site_occupancy
  O  O1  1  0.990515  0.180227  0.858318  1
  O  O2  1  0.990139  0.819661  0.858333  1
  O  O3  1  0.490135  0.680222  0.141840  1
  O  O4  1  0.490567  0.319651  0.141812  1
  O  O5  1  0.709038  0.244823  0.998226  1
  O  O6  1  0.208781  0.744815  0.001843  1
  O  O7  1  0.708778  0.755067  0.998326  1
  O  O8  1  0.209039  0.255055  0.001906  1
  O  O9  1  0.990265  0.159350  0.088011  1
  O  O10  1  0.990194  0.840526  0.088022  1
  O  O11  1  0.490214  0.659355  0.912149  1
  O  O12  1  0.490227  0.340528  0.912120  1
  O  O13  1  0.751436  0.141778  0.665552  1
  O  O14  1  0.251879  0.856298  0.671281  1
  O  O15  1  0.751962  0.643606  0.328876  1
  O  O16  1  0.250772  0.358039  0.334410  1
  O  O17  1  0.750708  0.356440  0.329217  1
  O  O18  1  0.252025  0.641711  0.334817  1
  O  O19  1  0.751944  0.858163  0.665374  1
  O  O20  1  0.251370  0.143526  0.671075  1
  O  O21  1  0.994440  0.243022  0.671039  1
  O  O22  1  0.994527  0.756866  0.671061  1
  O  O23  1  0.494478  0.743021  0.329109  1
  O  O24  1  0.494375  0.256866  0.329099  1
  O  O25  1  0.993606  0.061726  0.233868  1
  O  O26  1  0.993700  0.938159  0.233853  1
  O  O27  1  0.493796  0.561726  0.766307  1
  O  O28  1  0.493628  0.438159  0.766282  1
  O  O29  1  0.783910  0.163195  0.293040  1
  O  O30  1  0.281621  0.844325  0.271533  1
  O  O31  1  0.781699  0.655564  0.728652  1
  O  O32  1  0.283882  0.336706  0.707070  1
  O  O33  1  0.781625  0.344332  0.728613  1
  O  O34  1  0.283954  0.663174  0.707096  1
  O  O35  1  0.783875  0.836713  0.293068  1
  O  O36  1  0.281653  0.155545  0.271533  1
  O  O37  1  0.491204  0.167004  0.477193  1
  O  O38  1  0.491126  0.832881  0.477211  1
  O  O39  1  0.991167  0.667005  0.522965  1
  O  O40  1  0.991068  0.332882  0.522937  1
  O  O41  1  0.490702  0.058651  0.548098  1
  O  O42  1  0.490492  0.941232  0.548112  1
  O  O43  1  0.990466  0.558655  0.452055  1
  O  O44  1  0.990848  0.441237  0.452048  1
  O  O45  1  0.272740  0.999953  0.378456  1
  O  O46  1  0.775302  0.999921  0.399195  1
  O  O47  1  0.275373  0.499980  0.600958  1
  O  O48  1  0.772811  0.499916  0.621701  1
  Si  Si49  1  0.975020  0.209066  0.986340  1
  Si  Si50  1  0.974769  0.790814  0.986353  1
  Si  Si51  1  0.474770  0.709068  0.013818  1
  Si  Si52  1  0.475021  0.290813  0.013789  1
  Si  Si53  1  0.996574  0.175529  0.718684  1
  Si  Si54  1  0.996746  0.824359  0.718704  1
  Si  Si55  1  0.496777  0.675528  0.281469  1
  Si  Si56  1  0.496248  0.324356  0.281447  1
  Si  Si57  1  0.012111  0.133706  0.218712  1
  Si  Si58  1  0.012097  0.866176  0.218715  1
  Si  Si59  1  0.512165  0.633709  0.781454  1
  Si  Si60  1  0.512085  0.366177  0.781424  1
  Si  Si61  1  0.512600  0.185659  0.342629  1
  Si  Si62  1  0.512586  0.814229  0.342645  1
  Si  Si63  1  0.012653  0.685658  0.657529  1
  Si  Si64  1  0.012572  0.314229  0.657500  1
  Si  Si65  1  0.496305  0.126654  0.593124  1
  Si  Si66  1  0.496470  0.873230  0.593144  1
  Si  Si67  1  0.996509  0.626658  0.407029  1
  Si  Si68  1  0.995976  0.373236  0.407012  1
  Si  Si69  1  0.507704  0.999938  0.468282  1
  Si  Si70  1  0.007772  0.499946  0.531874  1
  Si  Si71  1  0.007517  0.999941  0.307326  1
  Si  Si72  1  0.507585  0.499946  0.692829  1
