# generated using pymatgen
data_SiO2
_symmetry_space_group_name_H-M   'P 1'
_cell_length_a   17.25584810
_cell_length_b   17.25651483
_cell_length_c   18.64252262
_cell_angle_alpha   90.00000000
_cell_angle_beta   90.00000000
_cell_angle_gamma   120.00000000
_symmetry_Int_Tables_number   1
_chemical_formula_structural   SiO2
_chemical_formula_sum   'Si90 O180'
_cell_volume   4807.55994984
_cell_formula_units_Z   90
loop_
 _symmetry_equiv_pos_site_id
 _symmetry_equiv_pos_as_xyz
  1  'x, y, z'
loop_
 _atom_site_type_symbol
 _atom_site_label
 _atom_site_symmetry_multiplicity
 _atom_site_fract_x
 _atom_site_fract_y
 _atom_site_fract_z
 _atom_site_occupancy
  O  O1  1  0.091457  0.182795  0.297619  1
  O  O2  1  0.575173  0.150253  0.035698  1
  O  O3  1  0.850084  0.424939  0.035749  1
  O  O4  1  0.574996  0.424904  0.035658  1
  O  O5  1  0.918146  0.081531  0.292488  1
  O  O6  1  0.163506  0.081508  0.292754  1
  O  O7  1  0.748446  0.251695  0.040745  1
  Si  Si8  1  0.821044  0.000057  0.280788  1
  O  O9  1  0.503213  0.251635  0.040698  1
  O  O10  1  0.984754  0.249118  0.322413  1
  O  O11  1  0.264735  0.015160  0.322719  1
  O  O12  1  0.750609  0.015317  0.322397  1
  O  O13  1  0.264452  0.249085  0.322669  1
  O  O14  1  0.681955  0.084089  0.010774  1
  O  O15  1  0.402035  0.317994  0.010741  1
  O  O16  1  0.916015  0.317784  0.011086  1
  O  O17  1  0.402201  0.084003  0.010800  1
  O  O18  1  0.999909  0.197386  0.198223  1
  Si  Si19  1  0.306537  0.306552  0.000031  1
  Si  Si20  1  0.845334  0.333498  0.217611  1
  O  O21  1  0.197905  0.197339  0.198425  1
  O  O22  1  0.666830  0.135690  0.135053  1
  O  O23  1  0.468775  0.333151  0.135044  1
  O  O24  1  0.864272  0.333151  0.135150  1
  O  O25  1  0.468865  0.135684  0.135031  1
  O  O26  1  0.081659  0.162682  0.103067  1
  O  O27  1  0.585193  0.170413  0.230292  1
  O  O28  1  0.829645  0.414784  0.230500  1
  O  O29  1  0.584937  0.414814  0.230419  1
  O  O30  1  0.009628  0.257072  0.067327  1
  O  O31  1  0.248017  0.257176  0.067468  1
  O  O32  1  0.657086  0.075984  0.266077  1
  O  O33  1  0.418529  0.342571  0.266054  1
  O  O34  1  0.923935  0.342556  0.266009  1
  O  O35  1  0.418871  0.076024  0.266011  1
  O  O36  1  0.909505  0.090407  0.099676  1
  O  O37  1  0.181481  0.090428  0.099946  1
  O  O38  1  0.757210  0.242687  0.233611  1
  O  O39  1  0.485366  0.242721  0.233541  1
  Si  Si40  1  0.999812  0.178520  0.280872  1
  O  O41  1  0.748274  0.496418  0.040793  1
  Si  Si42  1  0.178853  0.178491  0.281056  1
  Si  Si43  1  0.666869  0.154630  0.052414  1
  Si  Si44  1  0.487697  0.333174  0.052399  1
  Si  Si45  1  0.845546  0.333172  0.052496  1
  Si  Si46  1  0.487824  0.154616  0.052392  1
  Si  Si47  1  0.000371  0.178443  0.115767  1
  Si  Si48  1  0.488166  0.154657  0.217504  1
  Si  Si49  1  0.178695  0.178514  0.115942  1
  Si  Si50  1  0.666414  0.154585  0.217533  1
  Si  Si51  1  0.487976  0.333494  0.217535  1
  O  O52  1  0.802206  0.000074  0.198138  1
  Si  Si53  1  0.000062  0.306449  0.000094  1
  O  O54  1  0.175248  0.000065  0.198487  1
  Si  Si55  1  0.973313  0.333135  0.333298  1
  O  O56  1  0.483439  0.241693  0.631132  1
  O  O57  1  0.758290  0.241655  0.631038  1
  O  O58  1  0.241697  0.483490  0.369018  1
  O  O59  1  0.584918  0.414973  0.625955  1
  O  O60  1  0.585002  0.169930  0.626122  1
  O  O61  1  0.829889  0.414897  0.625959  1
  O  O62  1  0.417386  0.068704  0.655934  1
  O  O63  1  0.931257  0.348686  0.655890  1
  O  O64  1  0.417341  0.348623  0.655900  1
  O  O65  1  0.651315  0.068641  0.655910  1
  O  O66  1  0.348441  0.417216  0.344235  1
  O  O67  1  0.068733  0.417233  0.344084  1
  O  O68  1  0.469088  0.135571  0.531747  1
  O  O69  1  0.864500  0.333397  0.531667  1
  O  O70  1  0.468934  0.333400  0.531709  1
  O  O71  1  0.666486  0.135479  0.531732  1
  O  O72  1  0.333346  0.468946  0.468377  1
  O  O73  1  0.135418  0.468999  0.468305  1
  O  O74  1  0.748014  0.496134  0.436297  1
  O  O75  1  0.503651  0.251830  0.436393  1
  O  O76  1  0.748309  0.251650  0.436347  1
  O  O77  1  0.409567  0.085384  0.400768  1
  O  O78  1  0.914698  0.323851  0.400696  1
  O  O79  1  0.409294  0.323889  0.400782  1
  O  O80  1  0.675889  0.085217  0.400783  1
  O  O81  1  0.323791  0.409267  0.599375  1
  O  O82  1  0.085328  0.409322  0.599307  1
  O  O83  1  0.575937  0.423964  0.433171  1
  O  O84  1  0.576213  0.152291  0.433235  1
  O  O85  1  0.847793  0.423728  0.433137  1
  Si  Si86  1  0.487932  0.154424  0.614404  1
  Si  Si87  1  0.845535  0.333419  0.614299  1
  Si  Si88  1  0.487847  0.333404  0.614354  1
  Si  Si89  1  0.666528  0.154373  0.614374  1
  Si  Si90  1  0.333382  0.487841  0.385737  1
  Si  Si91  1  0.154358  0.487854  0.385667  1
  Si  Si92  1  0.488049  0.154881  0.449283  1
  Si  Si93  1  0.845262  0.332993  0.449183  1
  Si  Si94  1  0.487904  0.333098  0.449239  1
  Si  Si95  1  0.666916  0.154756  0.449257  1
  Si  Si96  1  0.332933  0.487810  0.550856  1
  Si  Si97  1  0.154691  0.487890  0.550786  1
  Si  Si98  1  0.360256  0.026680  0.333417  1
  Si  Si99  1  0.359891  0.333196  0.333453  1
  Si  Si100  1  0.666513  0.026606  0.333366  1
  O  O101  1  0.183173  0.091480  0.702432  1
  O  O102  1  0.908381  0.091528  0.702275  1
  O  O103  1  0.081668  0.163289  0.707337  1
  O  O104  1  0.084064  0.401935  0.989286  1
  O  O105  1  0.317871  0.401982  0.989246  1
  O  O106  1  0.249257  0.264457  0.677508  1
  O  O107  1  0.015224  0.264492  0.677457  1
  O  O108  1  0.135608  0.468774  0.865083  1
  O  O109  1  0.333130  0.468819  0.865075  1
  O  O110  1  0.197592  0.197675  0.801723  1
  O  O111  1  0.000100  0.197679  0.801658  1
  O  O112  1  0.163080  0.081462  0.897103  1
  O  O113  1  0.918385  0.081434  0.896961  1
  O  O114  1  0.075965  0.418533  0.734097  1
  O  O115  1  0.342551  0.418582  0.734107  1
  O  O116  1  0.257148  0.247844  0.932707  1
  O  O117  1  0.751974  0.009401  0.932492  1
  O  O118  1  0.257244  0.009187  0.932775  1
  O  O119  1  0.990644  0.247848  0.932660  1
  O  O120  1  0.242657  0.485390  0.766578  1
  O  O121  1  0.090478  0.180989  0.900161  1
  Si  Si122  1  0.154528  0.487682  0.947715  1
  Si  Si123  1  0.333168  0.487742  0.947715  1
  Si  Si124  1  0.178721  0.178778  0.719087  1
  Si  Si125  1  0.026671  0.359967  0.666675  1
  Si  Si126  1  0.000110  0.178807  0.719014  1
  Si  Si127  1  0.154491  0.487990  0.782599  1
  Si  Si128  1  0.333441  0.488027  0.782593  1
  Si  Si129  1  0.178653  0.178388  0.884193  1
  Si  Si130  1  0.999719  0.178402  0.884132  1
  Si  Si131  1  0.693323  0.000031  0.999881  1
  Si  Si132  1  0.333249  0.359960  0.666714  1
  Si  Si133  1  0.821395  0.000164  0.884063  1
  Si  Si134  1  0.178732  0.000138  0.884281  1
  O  O135  1  0.816641  0.908341  0.297546  1
  O  O136  1  0.091751  0.908245  0.297784  1
  O  O137  1  0.918458  0.836836  0.292549  1
  O  O138  1  0.750828  0.735465  0.322428  1
  O  O139  1  0.984458  0.735296  0.322590  1
  O  O140  1  0.915854  0.597866  0.010886  1
  O  O141  1  0.682183  0.597868  0.010829  1
  O  O142  1  0.802541  0.802299  0.198230  1
  O  O143  1  0.000092  0.802329  0.198398  1
  O  O144  1  0.864220  0.531011  0.135124  1
  O  O145  1  0.666735  0.530992  0.135028  1
  O  O146  1  0.836922  0.918416  0.102855  1
  O  O147  1  0.081922  0.918370  0.103106  1
  O  O148  1  0.743007  0.751987  0.067341  1
  O  O149  1  0.248270  0.990525  0.067470  1
  O  O150  1  0.742708  0.990623  0.067184  1
  O  O151  1  0.009401  0.751947  0.067460  1
  O  O152  1  0.923800  0.581197  0.266052  1
  O  O153  1  0.657314  0.581308  0.265933  1
  O  O154  1  0.909783  0.819091  0.099801  1
  O  O155  1  0.757035  0.514295  0.233573  1
  Si  Si156  1  0.821324  0.821179  0.280879  1
  Si  Si157  1  0.693539  0.693300  0.000028  1
  Si  Si158  1  0.999916  0.821108  0.281036  1
  Si  Si159  1  0.845424  0.512122  0.052473  1
  Si  Si160  1  0.666809  0.512097  0.052398  1
  Si  Si161  1  0.821522  0.821562  0.115758  1
  Si  Si162  1  0.999952  0.693286  0.000042  1
  Si  Si163  1  0.000441  0.821493  0.115915  1
  Si  Si164  1  0.845228  0.511724  0.217594  1
  Si  Si165  1  0.666303  0.511744  0.217510  1
  Si  Si166  1  0.666770  0.640034  0.333292  1
  Si  Si167  1  0.821236  0.999710  0.115677  1
  Si  Si168  1  0.178870  0.999678  0.115995  1
  Si  Si169  1  0.179059  0.999989  0.281112  1
  Si  Si170  1  0.306788  0.999869  0.000008  1
  O  O171  1  0.758174  0.516504  0.630970  1
  O  O172  1  0.516462  0.758127  0.369008  1
  O  O173  1  0.241601  0.758187  0.369021  1
  O  O174  1  0.415026  0.584821  0.373938  1
  O  O175  1  0.414879  0.829749  0.374136  1
  O  O176  1  0.169763  0.584873  0.373993  1
  O  O177  1  0.651293  0.582580  0.655790  1
  O  O178  1  0.931117  0.582474  0.655851  1
  O  O179  1  0.582476  0.931142  0.344186  1
  O  O180  1  0.068591  0.651259  0.344225  1
  O  O181  1  0.582723  0.651423  0.344171  1
  O  O182  1  0.348850  0.931218  0.344229  1
  O  O183  1  0.666486  0.530935  0.531591  1
  O  O184  1  0.864298  0.530767  0.531626  1
  O  O185  1  0.530905  0.864283  0.468389  1
  O  O186  1  0.135431  0.666495  0.468405  1
  O  O187  1  0.530814  0.666319  0.468342  1
  O  O188  1  0.333371  0.864270  0.468419  1
  O  O189  1  0.251659  0.503546  0.563657  1
  O  O190  1  0.496271  0.748040  0.563696  1
  O  O191  1  0.251683  0.748138  0.563796  1
  O  O192  1  0.676150  0.590658  0.400615  1
  O  O193  1  0.914420  0.590471  0.400751  1
  O  O194  1  0.590528  0.914498  0.599314  1
  O  O195  1  0.085241  0.675884  0.599357  1
  O  O196  1  0.590445  0.675864  0.599310  1
  O  O197  1  0.324013  0.914643  0.599296  1
  O  O198  1  0.423722  0.575944  0.566878  1
  O  O199  1  0.423825  0.847688  0.566888  1
  O  O200  1  0.152068  0.576032  0.566850  1
  Si  Si201  1  0.666439  0.512042  0.614236  1
  Si  Si202  1  0.845422  0.511970  0.614276  1
  Si  Si203  1  0.512008  0.845401  0.385748  1
  Si  Si204  1  0.154306  0.666449  0.385762  1
  Si  Si205  1  0.512057  0.666408  0.385687  1
  Si  Si206  1  0.333405  0.845413  0.385774  1
  Si  Si207  1  0.666832  0.512030  0.449117  1
  Si  Si208  1  0.845001  0.511800  0.449157  1
  Si  Si209  1  0.511958  0.845023  0.550859  1
  Si  Si210  1  0.154719  0.666829  0.550876  1
  Si  Si211  1  0.511878  0.666700  0.550812  1
  Si  Si212  1  0.333045  0.845075  0.550898  1
  Si  Si213  1  0.973138  0.639872  0.333415  1
  Si  Si214  1  0.639931  0.973179  0.666655  1
  Si  Si215  1  0.639862  0.666600  0.666649  1
  O  O216  1  0.424899  0.849581  0.964252  1
  O  O217  1  0.150001  0.574939  0.964375  1
  O  O218  1  0.424959  0.574964  0.964469  1
  O  O219  1  0.908349  0.816642  0.702327  1
  O  O220  1  0.251606  0.748209  0.959287  1
  Si  Si221  1  0.178729  0.999749  0.719168  1
  O  O222  1  0.496859  0.748242  0.959375  1
  O  O223  1  0.081647  0.918209  0.707516  1
  O  O224  1  0.836687  0.918242  0.707314  1
  O  O225  1  0.318198  0.915830  0.989113  1
  O  O226  1  0.598041  0.681846  0.989303  1
  O  O227  1  0.083991  0.681888  0.989151  1
  O  O228  1  0.597894  0.915945  0.989079  1
  O  O229  1  0.015297  0.750629  0.677579  1
  O  O230  1  0.735396  0.984554  0.677373  1
  O  O231  1  0.249242  0.984561  0.677604  1
  O  O232  1  0.735290  0.750687  0.677489  1
  O  O233  1  0.333172  0.864075  0.864870  1
  O  O234  1  0.531147  0.666574  0.865099  1
  O  O235  1  0.135653  0.666746  0.864973  1
  O  O236  1  0.531062  0.864066  0.864928  1
  O  O237  1  0.000063  0.802234  0.801787  1
  Si  Si238  1  0.821460  0.821271  0.884134  1
  O  O239  1  0.251650  0.503322  0.959396  1
  O  O240  1  0.802192  0.802317  0.801664  1
  O  O241  1  0.414878  0.829513  0.769526  1
  O  O242  1  0.170146  0.584947  0.769709  1
  O  O243  1  0.414790  0.584981  0.769759  1
  O  O244  1  0.918461  0.837006  0.897012  1
  O  O245  1  0.342656  0.923779  0.733993  1
  O  O246  1  0.581192  0.657085  0.734063  1
  O  O247  1  0.075964  0.657146  0.734033  1
  O  O248  1  0.581331  0.923745  0.734020  1
  O  O249  1  0.990589  0.742699  0.932749  1
  O  O250  1  0.752096  0.742671  0.932628  1
  O  O251  1  0.242735  0.757028  0.766400  1
  O  O252  1  0.514506  0.756996  0.766551  1
  O  O253  1  0.090539  0.909390  0.900272  1
  O  O254  1  0.818702  0.909360  0.900139  1
  Si  Si255  1  0.333211  0.845223  0.947516  1
  Si  Si256  1  0.512315  0.666647  0.947744  1
  Si  Si257  1  0.154508  0.666693  0.947615  1
  Si  Si258  1  0.512246  0.845238  0.947570  1
  Si  Si259  1  0.000094  0.821130  0.719146  1
  Si  Si260  1  0.026569  0.666508  0.666722  1
  Si  Si261  1  0.821072  0.821141  0.719018  1
  Si  Si262  1  0.333549  0.845161  0.782393  1
  Si  Si263  1  0.511816  0.666207  0.782629  1
  Si  Si264  1  0.154550  0.666303  0.782501  1
  Si  Si265  1  0.511837  0.845143  0.782452  1
  Si  Si266  1  0.999744  0.821259  0.884250  1
  O  O267  1  0.197650  0.999766  0.801798  1
  Si  Si268  1  0.821109  0.999766  0.718951  1
  Si  Si269  1  0.333329  0.973241  0.666711  1
  O  O270  1  0.802158  0.999782  0.801580  1
