# generated using pymatgen
data_SiO2
_symmetry_space_group_name_H-M   'P 1'
_cell_length_a   14.29860979
_cell_length_b   14.30928535
_cell_length_c   24.74518703
_cell_angle_alpha   90.00000000
_cell_angle_beta   90.00000000
_cell_angle_gamma   120.00000000
_symmetry_Int_Tables_number   1
_chemical_formula_structural   SiO2
_chemical_formula_sum   'Si72 O144'
_cell_volume   4384.6318184
_cell_formula_units_Z   72
loop_
 _symmetry_equiv_pos_site_id
 _symmetry_equiv_pos_as_xyz
  1  'x, y, z'
loop_
 _atom_site_type_symbol
 _atom_site_label
 _atom_site_symmetry_multiplicity
 _atom_site_fract_x
 _atom_site_fract_y
 _atom_site_fract_z
 _atom_site_occupancy
  O  O1  1  0.662804  0.330763  0.000022  1
  O  O2  1  0.548629  0.274174  0.088703  1
  O  O3  1  0.725474  0.274278  0.087842  1
  O  O4  1  0.725348  0.450693  0.087712  1
  O  O5  1  0.404733  0.107695  0.145275  1
  O  O6  1  0.892391  0.297040  0.144654  1
  O  O7  1  0.297320  0.405078  0.144576  1
  O  O8  1  0.703181  0.107877  0.144614  1
  O  O9  1  0.404815  0.296909  0.145401  1
  O  O10  1  0.108048  0.404931  0.144510  1
  O  O11  1  0.550272  0.274891  0.189352  1
  O  O12  1  0.725172  0.274996  0.188529  1
  O  O13  1  0.725065  0.449613  0.188400  1
  O  O14  1  0.669696  0.334994  0.277416  1
  O  O15  1  0.000451  0.378554  0.232005  1
  O  O16  1  0.378423  0.379386  0.232206  1
  O  O17  1  0.500226  0.499960  0.159135  1
  Si  Si18  1  0.391448  0.391325  0.294753  1
  O  O19  1  0.395921  0.104905  0.316193  1
  O  O20  1  0.895402  0.290601  0.316444  1
  O  O21  1  0.290923  0.395497  0.316949  1
  O  O22  1  0.709821  0.104938  0.316546  1
  O  O23  1  0.395887  0.290477  0.316177  1
  O  O24  1  0.105326  0.395533  0.316534  1
  Si  Si25  1  0.469864  0.234824  0.139272  1
  Si  Si26  1  0.765214  0.234982  0.138375  1
  Si  Si27  1  0.235216  0.470088  0.138185  1
  Si  Si28  1  0.000247  0.391577  0.169345  1
  Si  Si29  1  0.667342  0.333469  0.214255  1
  Si  Si30  1  0.391760  0.391908  0.169554  1
  Si  Si31  1  0.665871  0.332649  0.062970  1
  Si  Si32  1  0.000388  0.391222  0.294559  1
  O  O33  1  0.621831  0.000738  0.232011  1
  Si  Si34  1  0.609190  0.000112  0.294563  1
  Si  Si35  1  0.608588  0.000168  0.169366  1
  O  O36  1  0.500325  0.499869  0.306006  1
  O  O37  1  0.000170  0.499765  0.159038  1
  O  O38  1  0.000404  0.499912  0.305790  1
  O  O39  1  0.545582  0.272509  0.357723  1
  O  O40  1  0.727738  0.272419  0.358398  1
  O  O41  1  0.727744  0.454730  0.358609  1
  O  O42  1  0.545200  0.272615  0.642389  1
  O  O43  1  0.727457  0.272746  0.641544  1
  O  O44  1  0.727221  0.454958  0.641476  1
  O  O45  1  0.353206  0.176277  0.400985  1
  O  O46  1  0.824257  0.176215  0.401183  1
  O  O47  1  0.175908  0.352129  0.401394  1
  O  O48  1  0.175762  0.351796  0.598810  1
  O  O49  1  0.353097  0.176766  0.599015  1
  O  O50  1  0.824052  0.176457  0.598783  1
  O  O51  1  0.000036  0.177955  0.427118  1
  Si  Si52  1  0.666918  0.333612  0.659296  1
  O  O53  1  0.179733  0.179052  0.427005  1
  Si  Si54  1  0.667283  0.333408  0.340749  1
  O  O55  1  0.179256  0.178551  0.573009  1
  O  O56  1  0.999773  0.177859  0.573003  1
  O  O57  1  0.277272  0.138389  0.499981  1
  O  O58  1  0.861735  0.137757  0.500021  1
  O  O59  1  0.138113  0.275657  0.500086  1
  Si  Si60  1  0.420819  0.210144  0.347438  1
  Si  Si61  1  0.790247  0.210177  0.347791  1
  Si  Si62  1  0.210324  0.420283  0.348068  1
  Si  Si63  1  0.209770  0.420070  0.652089  1
  Si  Si64  1  0.420442  0.210403  0.652644  1
  Si  Si65  1  0.789705  0.210223  0.652137  1
  Si  Si66  1  0.250062  0.124746  0.437846  1
  Si  Si67  1  0.875368  0.124085  0.437915  1
  Si  Si68  1  0.124703  0.248665  0.437951  1
  Si  Si69  1  0.124458  0.248426  0.562197  1
  Si  Si70  1  0.250024  0.124744  0.562112  1
  Si  Si71  1  0.875120  0.124107  0.562161  1
  O  O72  1  0.179620  0.000170  0.427010  1
  O  O73  1  0.180058  0.000161  0.573009  1
  O  O74  1  0.548272  0.274006  0.911383  1
  O  O75  1  0.725051  0.274085  0.912137  1
  O  O76  1  0.724937  0.450570  0.912350  1
  O  O77  1  0.297077  0.405184  0.855576  1
  O  O78  1  0.404285  0.107701  0.854701  1
  O  O79  1  0.891957  0.296873  0.855383  1
  O  O80  1  0.107692  0.404821  0.855608  1
  O  O81  1  0.702669  0.107804  0.855155  1
  O  O82  1  0.404556  0.297003  0.854766  1
  O  O83  1  0.549909  0.274977  0.810719  1
  O  O84  1  0.724841  0.275127  0.811467  1
  O  O85  1  0.724707  0.449718  0.811663  1
  O  O86  1  0.669319  0.335009  0.722628  1
  O  O87  1  0.378248  0.379520  0.767972  1
  O  O88  1  0.000060  0.378417  0.768107  1
  Si  Si89  1  0.666959  0.333587  0.785789  1
  Si  Si90  1  0.608317  0.000074  0.705184  1
  Si  Si91  1  0.665558  0.332513  0.937072  1
  O  O92  1  0.290517  0.395702  0.683348  1
  O  O93  1  0.395137  0.104950  0.683804  1
  O  O94  1  0.894687  0.290345  0.683707  1
  O  O95  1  0.104608  0.395183  0.683502  1
  O  O96  1  0.708933  0.104886  0.683199  1
  O  O97  1  0.395527  0.290744  0.683908  1
  Si  Si98  1  0.234870  0.470097  0.861925  1
  Si  Si99  1  0.469515  0.234808  0.860805  1
  Si  Si100  1  0.764759  0.234863  0.861564  1
  Si  Si101  1  0.391547  0.392041  0.830624  1
  Si  Si102  1  0.999879  0.391444  0.830768  1
  Si  Si103  1  0.391132  0.391553  0.705425  1
  Si  Si104  1  0.999755  0.390953  0.705553  1
  Si  Si105  1  0.608028  0.000159  0.830388  1
  O  O106  1  0.621062  0.000689  0.767730  1
  O  O107  1  0.999748  0.499641  0.694351  1
  O  O108  1  0.999811  0.499630  0.841121  1
  O  O109  1  0.451574  0.725624  0.088607  1
  O  O110  1  0.274761  0.725531  0.088027  1
  O  O111  1  0.274844  0.549084  0.087622  1
  O  O112  1  0.703141  0.594851  0.144643  1
  O  O113  1  0.595486  0.892113  0.145193  1
  O  O114  1  0.107882  0.702595  0.144788  1
  O  O115  1  0.892253  0.594636  0.144547  1
  O  O116  1  0.297029  0.891899  0.144786  1
  O  O117  1  0.595523  0.702974  0.145273  1
  O  O118  1  0.450058  0.724828  0.189271  1
  O  O119  1  0.275201  0.724785  0.188694  1
  O  O120  1  0.275193  0.550125  0.188319  1
  O  O121  1  0.330891  0.664354  0.277419  1
  O  O122  1  0.378768  0.999186  0.232089  1
  O  O123  1  0.621908  0.620658  0.232166  1
  O  O124  1  0.336806  0.669661  0.000019  1
  O  O125  1  0.999794  0.620909  0.232029  1
  O  O126  1  0.500145  0.999909  0.158941  1
  Si  Si127  1  0.333058  0.666196  0.214257  1
  O  O128  1  0.500373  0.999933  0.305885  1
  Si  Si129  1  0.334241  0.667210  0.062968  1
  O  O130  1  0.709745  0.604270  0.316727  1
  O  O131  1  0.604726  0.894891  0.316106  1
  O  O132  1  0.105282  0.709292  0.316324  1
  O  O133  1  0.895375  0.604222  0.316638  1
  O  O134  1  0.290899  0.894923  0.316588  1
  O  O135  1  0.604666  0.709243  0.316252  1
  Si  Si136  1  0.765079  0.529672  0.138268  1
  Si  Si137  1  0.530392  0.764993  0.139165  1
  Si  Si138  1  0.235062  0.764793  0.138565  1
  Si  Si139  1  0.391726  0.999661  0.169433  1
  Si  Si140  1  0.608655  0.608072  0.169515  1
  Si  Si141  1  0.000020  0.607907  0.169375  1
  Si  Si142  1  0.609111  0.608482  0.294712  1
  Si  Si143  1  0.391535  0.999751  0.294625  1
  Si  Si144  1  0.000243  0.608518  0.294582  1
  O  O145  1  0.454895  0.727319  0.357687  1
  O  O146  1  0.272758  0.727359  0.358339  1
  O  O147  1  0.272726  0.545031  0.358709  1
  O  O148  1  0.454289  0.726988  0.642239  1
  O  O149  1  0.272259  0.727237  0.641803  1
  O  O150  1  0.271964  0.544799  0.641363  1
  O  O151  1  0.824209  0.647547  0.401338  1
  O  O152  1  0.647102  0.823420  0.400987  1
  O  O153  1  0.176152  0.823556  0.401143  1
  O  O154  1  0.646673  0.823139  0.598963  1
  O  O155  1  0.175490  0.822997  0.598846  1
  O  O156  1  0.824384  0.647875  0.598810  1
  Si  Si157  1  0.332621  0.666113  0.659295  1
  O  O158  1  0.820602  0.820729  0.427032  1
  O  O159  1  0.000162  0.821520  0.427038  1
  O  O160  1  0.000176  0.822026  0.572911  1
  Si  Si161  1  0.333181  0.666320  0.340751  1
  O  O162  1  0.820457  0.820844  0.573030  1
  O  O163  1  0.861994  0.723950  0.500056  1
  O  O164  1  0.722799  0.861260  0.500011  1
  O  O165  1  0.138370  0.861902  0.499975  1
  Si  Si166  1  0.790197  0.579465  0.347988  1
  Si  Si167  1  0.579651  0.789627  0.347395  1
  Si  Si168  1  0.210324  0.789674  0.347769  1
  Si  Si169  1  0.579067  0.789542  0.652514  1
  Si  Si170  1  0.209645  0.789369  0.652307  1
  Si  Si171  1  0.789856  0.579684  0.652121  1
  Si  Si172  1  0.875504  0.750972  0.437922  1
  Si  Si173  1  0.750161  0.874905  0.437897  1
  Si  Si174  1  0.124848  0.875552  0.437847  1
  Si  Si175  1  0.749901  0.874901  0.562156  1
  Si  Si176  1  0.124809  0.875543  0.562098  1
  Si  Si177  1  0.875491  0.751208  0.562166  1
  O  O178  1  0.820042  0.999484  0.573044  1
  O  O179  1  0.820513  0.999479  0.427068  1
  Si  Si180  1  0.390674  0.999716  0.705312  1
  O  O181  1  0.451332  0.725782  0.911374  1
  O  O182  1  0.274553  0.725667  0.912046  1
  O  O183  1  0.274538  0.549182  0.912447  1
  O  O184  1  0.595057  0.892188  0.854602  1
  O  O185  1  0.107527  0.702510  0.855360  1
  O  O186  1  0.702895  0.594964  0.855492  1
  O  O187  1  0.296576  0.891897  0.855215  1
  O  O188  1  0.595269  0.703147  0.854749  1
  O  O189  1  0.891912  0.594544  0.855622  1
  O  O190  1  0.449620  0.724743  0.810729  1
  O  O191  1  0.274770  0.724746  0.811349  1
  O  O192  1  0.274748  0.550075  0.811769  1
  O  O193  1  0.330498  0.664128  0.722628  1
  O  O194  1  0.499464  0.999869  0.693940  1
  O  O195  1  0.999401  0.620748  0.768141  1
  O  O196  1  0.378062  0.999129  0.767859  1
  O  O197  1  0.621718  0.620776  0.767939  1
  Si  Si198  1  0.332586  0.666110  0.785789  1
  Si  Si199  1  0.334050  0.667330  0.937070  1
  Si  Si200  1  0.608774  0.608734  0.705394  1
  O  O201  1  0.603904  0.894902  0.683625  1
  O  O202  1  0.104629  0.708985  0.683764  1
  O  O203  1  0.709407  0.604651  0.683269  1
  O  O204  1  0.290010  0.894849  0.683394  1
  O  O205  1  0.604181  0.709453  0.683893  1
  O  O206  1  0.894767  0.604058  0.683615  1
  Si  Si207  1  0.530065  0.765106  0.860784  1
  Si  Si208  1  0.234723  0.764804  0.861503  1
  Si  Si209  1  0.764729  0.529667  0.861845  1
  O  O210  1  0.499615  0.999893  0.840910  1
  Si  Si211  1  0.999664  0.607781  0.830797  1
  Si  Si212  1  0.391178  0.999654  0.830506  1
  Si  Si213  1  0.608435  0.608210  0.830592  1
  Si  Si214  1  0.999648  0.608270  0.705588  1
  O  O215  1  0.500016  0.500105  0.841024  1
  O  O216  1  0.499988  0.500098  0.694137  1
