# generated using pymatgen
data_SiO2
_symmetry_space_group_name_H-M   'P 1'
_cell_length_a   19.19477302
_cell_length_b   19.17666421
_cell_length_c   19.18261078
_cell_angle_alpha   90.00000000
_cell_angle_beta   90.00000000
_cell_angle_gamma   90.00000000
_symmetry_Int_Tables_number   1
_chemical_formula_structural   SiO2
_chemical_formula_sum   'Si136 O272'
_cell_volume   7060.96013498
_cell_formula_units_Z   136
loop_
 _symmetry_equiv_pos_site_id
 _symmetry_equiv_pos_as_xyz
  1  'x, y, z'
loop_
 _atom_site_type_symbol
 _atom_site_label
 _atom_site_symmetry_multiplicity
 _atom_site_fract_x
 _atom_site_fract_y
 _atom_site_fract_z
 _atom_site_occupancy
  O  O1  1  0.057607  0.046286  0.294469  1
  O  O2  1  0.290932  0.064589  0.042939  1
  O  O3  1  0.039429  0.295385  0.050903  1
  O  O4  1  0.439350  0.292553  0.041712  1
  O  O5  1  0.702324  0.304145  0.289331  1
  O  O6  1  0.459562  0.042617  0.305733  1
  O  O7  1  0.304807  0.459748  0.047658  1
  O  O8  1  0.043933  0.439570  0.293122  1
  O  O9  1  0.793579  0.208962  0.312631  1
  O  O10  1  0.191286  0.209277  0.293313  1
  O  O11  1  0.955150  0.191166  0.043716  1
  O  O12  1  0.714993  0.452858  0.053848  1
  O  O13  1  0.948639  0.460418  0.201063  1
  O  O14  1  0.296399  0.195927  0.209928  1
  O  O15  1  0.541796  0.457764  0.191457  1
  O  O16  1  0.954074  0.058151  0.210039  1
  O  O17  1  0.201720  0.287316  0.185303  1
  O  O18  1  0.811843  0.294699  0.211466  1
  O  O19  1  0.396359  0.000989  0.087903  1
  O  O20  1  0.999322  0.413731  0.090046  1
  O  O21  1  0.405115  0.251393  0.161753  1
  O  O22  1  0.586012  0.347615  0.247691  1
  O  O23  1  0.663934  0.343604  0.003058  1
  O  O24  1  0.158379  0.393614  0.249103  1
  O  O25  1  0.342781  0.498048  0.166800  1
  O  O26  1  0.752005  0.337762  0.103425  1
  Si  Si27  1  0.123756  0.121666  0.125088  1
  O  O28  1  0.247884  0.405418  0.152171  1
  O  O29  1  0.837337  0.102689  0.249482  1
  O  O30  1  0.502004  0.341627  0.145204  1
  O  O31  1  0.412728  0.152838  0.251593  1
  O  O32  1  0.848630  0.248338  0.093724  1
  O  O33  1  0.373648  0.126711  0.126581  1
  O  O34  1  0.121945  0.372496  0.121867  1
  O  O35  1  0.375052  0.375932  0.123371  1
  O  O36  1  0.876050  0.121240  0.122890  1
  O  O37  1  0.628300  0.382498  0.125901  1
  O  O38  1  0.878103  0.374313  0.128040  1
  O  O39  1  0.176559  0.158779  0.173900  1
  O  O40  1  0.076788  0.071978  0.167927  1
  Si  Si41  1  0.969266  0.467632  0.279028  1
  O  O42  1  0.163761  0.078828  0.069424  1
  O  O43  1  0.077250  0.176849  0.088506  1
  O  O44  1  0.917142  0.422409  0.321142  1
  Si  Si45  1  0.368505  0.073804  0.065024  1
  Si  Si46  1  0.063896  0.371408  0.064936  1
  Si  Si47  1  0.429689  0.315891  0.118934  1
  Si  Si48  1  0.625813  0.318502  0.312199  1
  Si  Si49  1  0.434904  0.118217  0.321637  1
  Si  Si50  1  0.318024  0.433853  0.123369  1
  Si  Si51  1  0.121342  0.426649  0.313277  1
  Si  Si52  1  0.815238  0.131390  0.322150  1
  Si  Si53  1  0.878120  0.178454  0.065259  1
  Si  Si54  1  0.689050  0.378062  0.072078  1
  Si  Si55  1  0.930143  0.436778  0.125782  1
  Si  Si56  1  0.372702  0.181253  0.186888  1
  Si  Si57  1  0.565055  0.381469  0.176925  1
  Si  Si58  1  0.877457  0.070765  0.186590  1
  Si  Si59  1  0.181715  0.365588  0.176561  1
  Si  Si60  1  0.823524  0.314301  0.133534  1
  Si  Si61  1  0.217715  0.214039  0.216643  1
  Si  Si62  1  0.029952  0.031485  0.219848  1
  Si  Si63  1  0.780933  0.284523  0.285937  1
  Si  Si64  1  0.217210  0.033671  0.028649  1
  Si  Si65  1  0.031533  0.216425  0.034554  1
  O  O66  1  0.154912  0.498395  0.332627  1
  O  O67  1  0.795772  0.050973  0.537859  1
  O  O68  1  0.547378  0.293931  0.560198  1
  O  O69  1  0.940798  0.293545  0.539812  1
  O  O70  1  0.799428  0.457127  0.548115  1
  O  O71  1  0.453425  0.200450  0.541090  1
  O  O72  1  0.202393  0.459848  0.562871  1
  O  O73  1  0.709739  0.437058  0.451178  1
  O  O74  1  0.961033  0.207131  0.439243  1
  O  O75  1  0.559116  0.208423  0.457865  1
  O  O76  1  0.691739  0.038426  0.453530  1
  O  O77  1  0.046568  0.308413  0.459598  1
  O  O78  1  0.288065  0.045362  0.448200  1
  O  O79  1  0.601848  0.498485  0.409303  1
  O  O80  1  0.909889  0.104755  0.502158  1
  O  O81  1  0.505202  0.411382  0.599284  1
  O  O82  1  0.901454  0.246342  0.655728  1
  O  O83  1  0.497531  0.157940  0.354212  1
  Si  Si84  1  0.875651  0.378790  0.374885  1
  O  O85  1  0.750696  0.090519  0.349179  1
  O  O86  1  0.155406  0.253002  0.412398  1
  O  O87  1  0.339527  0.155335  0.497130  1
  O  O88  1  0.250407  0.344627  0.603139  1
  O  O89  1  0.001018  0.086550  0.405818  1
  O  O90  1  0.593267  0.401271  0.500063  1
  Si  Si91  1  0.628016  0.127099  0.623396  1
  O  O92  1  0.751859  0.415337  0.662393  1
  O  O93  1  0.820214  0.334656  0.335990  1
  O  O94  1  0.997004  0.337688  0.650192  1
  O  O95  1  0.593460  0.248271  0.337179  1
  O  O96  1  0.250021  0.160876  0.399417  1
  O  O97  1  0.162476  0.350109  0.503932  1
  O  O98  1  0.342897  0.249478  0.591191  1
  O  O99  1  0.123288  0.128820  0.374374  1
  O  O100  1  0.865241  0.121232  0.627507  1
  O  O101  1  0.630772  0.373437  0.625379  1
  O  O102  1  0.870768  0.371242  0.620521  1
  O  O103  1  0.624491  0.372344  0.373083  1
  O  O104  1  0.372452  0.115470  0.373577  1
  O  O105  1  0.124630  0.377575  0.378025  1
  O  O106  1  0.877182  0.126559  0.374599  1
  O  O107  1  0.378301  0.123811  0.620596  1
  O  O108  1  0.122732  0.376542  0.628778  1
  O  O109  1  0.379436  0.373812  0.624919  1
  O  O110  1  0.624897  0.125006  0.377402  1
  O  O111  1  0.838646  0.428051  0.427278  1
  O  O112  1  0.926203  0.330044  0.414643  1
  O  O113  1  0.675541  0.085400  0.573315  1
  O  O114  1  0.572285  0.167057  0.580792  1
  Si  Si115  1  0.071960  0.065824  0.371739  1
  Si  Si116  1  0.870049  0.070599  0.563936  1
  Si  Si117  1  0.569868  0.370970  0.571633  1
  Si  Si118  1  0.927178  0.312849  0.617377  1
  Si  Si119  1  0.820375  0.434990  0.623121  1
  Si  Si120  1  0.179247  0.187637  0.370639  1
  Si  Si121  1  0.377881  0.181713  0.563432  1
  Si  Si122  1  0.183943  0.381847  0.575551  1
  Si  Si123  1  0.433076  0.434907  0.628120  1
  Si  Si124  1  0.631356  0.426711  0.433073  1
  Si  Si125  1  0.936684  0.130220  0.429932  1
  Si  Si126  1  0.569341  0.184257  0.381019  1
  Si  Si127  1  0.679330  0.064587  0.377624  1
  Si  Si128  1  0.321439  0.317092  0.630708  1
  Si  Si129  1  0.123339  0.322936  0.438169  1
  Si  Si130  1  0.313300  0.120082  0.429098  1
  Si  Si131  1  0.782414  0.468038  0.469791  1
  Si  Si132  1  0.969636  0.283707  0.464679  1
  Si  Si133  1  0.717510  0.031423  0.530179  1
  Si  Si134  1  0.531868  0.218931  0.533642  1
  O  O135  1  0.405456  0.498948  0.586654  1
  O  O136  1  0.652641  0.001369  0.333933  1
  O  O137  1  0.103387  0.000758  0.408523  1
  O  O138  1  0.906989  0.001699  0.585951  1
  O  O139  1  0.856174  0.498767  0.657838  1
  O  O140  1  0.673029  0.179806  0.664832  1
  O  O141  1  0.557071  0.041511  0.794488  1
  O  O142  1  0.205007  0.305216  0.789831  1
  O  O143  1  0.960582  0.045813  0.807558  1
  O  O144  1  0.534982  0.435755  0.799986  1
  O  O145  1  0.288459  0.200217  0.798239  1
  O  O146  1  0.688276  0.202357  0.792565  1
  O  O147  1  0.443809  0.458975  0.704813  1
  O  O148  1  0.204565  0.454665  0.958131  1
  O  O149  1  0.454248  0.207500  0.939197  1
  O  O150  1  0.058809  0.197549  0.960658  1
  O  O151  1  0.794307  0.195306  0.711244  1
  O  O152  1  0.037947  0.452100  0.699147  1
  O  O153  1  0.196966  0.038591  0.950296  1
  O  O154  1  0.463486  0.061450  0.700826  1
  O  O155  1  0.709130  0.298935  0.702734  1
  O  O156  1  0.311259  0.297049  0.708598  1
  O  O157  1  0.547417  0.301339  0.961530  1
  O  O158  1  0.799682  0.042952  0.940381  1
  Si  Si159  1  0.371427  0.372618  0.876626  1
  O  O160  1  0.837520  0.154200  0.999075  1
  O  O161  1  0.085046  0.342059  0.751666  1
  O  O162  1  0.004745  0.163478  0.845827  1
  O  O163  1  0.653806  0.406397  0.753005  1
  O  O164  1  0.249589  0.082006  0.838808  1
  O  O165  1  0.655850  0.248755  0.910381  1
  O  O166  1  0.495377  0.090020  0.899206  1
  O  O167  1  0.345920  0.094651  0.747357  1
  Si  Si168  1  0.461648  0.466836  0.783498  1
  O  O169  1  0.912671  0.152645  0.749094  1
  O  O170  1  0.101017  0.255331  0.851973  1
  O  O171  1  0.751151  0.156855  0.897834  1
  Si  Si172  1  0.281418  0.279271  0.781884  1
  O  O173  1  0.622973  0.123604  0.876452  1
  O  O174  1  0.134062  0.383584  0.869630  1
  O  O175  1  0.879728  0.126395  0.875609  1
  O  O176  1  0.622641  0.374476  0.879495  1
  O  O177  1  0.369566  0.128006  0.874971  1
  O  O178  1  0.129509  0.125990  0.875000  1
  O  O179  1  0.409193  0.100382  0.999942  1
  O  O180  1  0.324074  0.413396  0.927808  1
  O  O181  1  0.429017  0.334132  0.918415  1
  O  O182  1  0.591209  0.076027  0.674059  1
  O  O183  1  0.326493  0.318705  0.836435  1
  O  O184  1  0.406327  0.423986  0.824599  1
  Si  Si185  1  0.567195  0.064593  0.871521  1
  Si  Si186  1  0.130194  0.321964  0.816418  1
  Si  Si187  1  0.939005  0.123126  0.820040  1
  Si  Si188  1  0.613531  0.428882  0.819625  1
  Si  Si189  1  0.314378  0.125256  0.815295  1
  Si  Si190  1  0.679155  0.182090  0.870526  1
  Si  Si191  1  0.130195  0.435263  0.932484  1
  Si  Si192  1  0.431311  0.130551  0.927815  1
  Si  Si193  1  0.074148  0.185124  0.882114  1
  Si  Si194  1  0.869287  0.178247  0.685428  1
  Si  Si195  1  0.061004  0.376243  0.681724  1
  Si  Si196  1  0.179342  0.061615  0.874501  1
  Si  Si197  1  0.385259  0.069892  0.681133  1
  Si  Si198  1  0.685380  0.374492  0.685591  1
  Si  Si199  1  0.623205  0.317721  0.937841  1
  Si  Si200  1  0.817432  0.120996  0.927568  1
  Si  Si201  1  0.717517  0.220110  0.719065  1
  Si  Si202  1  0.283292  0.468996  0.970093  1
  Si  Si203  1  0.468756  0.282466  0.966592  1
  Si  Si204  1  0.537663  0.032468  0.716378  1
  O  O205  1  0.091312  0.401152  0.994768  1
  O  O206  1  0.559744  0.543005  0.292830  1
  O  O207  1  0.791447  0.563392  0.046324  1
  O  O208  1  0.538602  0.795487  0.060228  1
  O  O209  1  0.938583  0.790707  0.041673  1
  O  O210  1  0.203408  0.804510  0.291102  1
  O  O211  1  0.961133  0.543990  0.305098  1
  O  O212  1  0.806877  0.960865  0.046134  1
  O  O213  1  0.545067  0.941073  0.288626  1
  O  O214  1  0.294816  0.709661  0.312592  1
  O  O215  1  0.690124  0.705653  0.290527  1
  O  O216  1  0.456001  0.691260  0.048587  1
  O  O217  1  0.211858  0.957708  0.057089  1
  O  O218  1  0.442465  0.958702  0.203438  1
  O  O219  1  0.795668  0.693829  0.208699  1
  O  O220  1  0.036862  0.952995  0.200825  1
  O  O221  1  0.452222  0.554599  0.212483  1
  O  O222  1  0.704197  0.789516  0.187291  1
  O  O223  1  0.310743  0.795717  0.210833  1
  O  O224  1  0.845359  0.999001  0.165544  1
  O  O225  1  0.498909  0.915823  0.093548  1
  O  O226  1  0.903491  0.751657  0.162214  1
  O  O227  1  0.085920  0.841463  0.248297  1
  Si  Si228  1  0.623493  0.622707  0.121837  1
  O  O229  1  0.662783  0.897165  0.250574  1
  Si  Si230  1  0.530354  0.719375  0.033375  1
  O  O231  1  0.250083  0.840096  0.103159  1
  Si  Si232  1  0.468591  0.966437  0.279720  1
  O  O233  1  0.898500  0.500641  0.086988  1
  O  O234  1  0.749686  0.907209  0.150936  1
  O  O235  1  0.336521  0.601944  0.250832  1
  O  O236  1  0.002194  0.839623  0.144869  1
  O  O237  1  0.912354  0.653833  0.252522  1
  O  O238  1  0.345957  0.747441  0.093949  1
  O  O239  1  0.875996  0.626150  0.126778  1
  O  O240  1  0.622634  0.874614  0.125718  1
  O  O241  1  0.876303  0.876598  0.122003  1
  O  O242  1  0.375745  0.620387  0.125059  1
  O  O243  1  0.126994  0.885929  0.129225  1
  O  O244  1  0.376630  0.873645  0.125868  1
  O  O245  1  0.676117  0.662919  0.167960  1
  O  O246  1  0.571131  0.583490  0.169069  1
  Si  Si247  1  0.718648  0.530711  0.031129  1
  O  O248  1  0.663513  0.570001  0.075539  1
  O  O249  1  0.583664  0.674482  0.074424  1
  O  O250  1  0.422096  0.919243  0.325847  1
  Si  Si251  1  0.869792  0.573417  0.065119  1
  Si  Si252  1  0.563405  0.872180  0.070046  1
  Si  Si253  1  0.929385  0.815099  0.118658  1
  Si  Si254  1  0.126661  0.816851  0.314096  1
  Si  Si255  1  0.935189  0.618995  0.322216  1
  Si  Si256  1  0.819937  0.935145  0.122004  1
  Si  Si257  1  0.621611  0.929144  0.312823  1
  Si  Si258  1  0.314842  0.631822  0.323048  1
  Si  Si259  1  0.378502  0.677902  0.067723  1
  Si  Si260  1  0.186973  0.882316  0.074414  1
  Si  Si261  1  0.427693  0.936959  0.126749  1
  Si  Si262  1  0.872643  0.680729  0.187029  1
  Si  Si263  1  0.063677  0.879250  0.179907  1
  Si  Si264  1  0.376179  0.569127  0.188184  1
  Si  Si265  1  0.684460  0.867685  0.178057  1
  Si  Si266  1  0.321299  0.814473  0.132550  1
  Si  Si267  1  0.717550  0.714296  0.214688  1
  Si  Si268  1  0.530291  0.533522  0.217822  1
  Si  Si269  1  0.281891  0.785195  0.286002  1
  O  O270  1  0.160302  0.849383  0.005409  1
  O  O271  1  0.340785  0.653162  0.000297  1
  O  O272  1  0.296358  0.551404  0.536693  1
  O  O273  1  0.044485  0.796594  0.556356  1
  O  O274  1  0.445526  0.790577  0.542452  1
  O  O275  1  0.297772  0.957527  0.549324  1
  O  O276  1  0.956320  0.695909  0.542447  1
  O  O277  1  0.702424  0.957661  0.560409  1
  O  O278  1  0.209828  0.936854  0.450800  1
  O  O279  1  0.462865  0.704587  0.440821  1
  O  O280  1  0.061707  0.704596  0.460497  1
  O  O281  1  0.191862  0.536700  0.453022  1
  O  O282  1  0.546444  0.808233  0.457294  1
  O  O283  1  0.787329  0.546195  0.448451  1
  O  O284  1  0.356606  0.997167  0.659077  1
  O  O285  1  0.412739  0.600054  0.500949  1
  O  O286  1  0.005259  0.913123  0.599581  1
  O  O287  1  0.400962  0.747222  0.657182  1
  O  O288  1  0.997115  0.659734  0.355322  1
  Si  Si289  1  0.033538  0.719200  0.535195  1
  O  O290  1  0.249790  0.591774  0.349789  1
  O  O291  1  0.653731  0.752150  0.407678  1
  O  O292  1  0.840168  0.655711  0.497239  1
  O  O293  1  0.750982  0.842668  0.600936  1
  O  O294  1  0.501225  0.585248  0.402185  1
  O  O295  1  0.092256  0.904113  0.498941  1
  Si  Si296  1  0.376506  0.877268  0.377352  1
  O  O297  1  0.253089  0.910732  0.663105  1
  Si  Si298  1  0.127247  0.624463  0.625054  1
  O  O299  1  0.496689  0.839178  0.653497  1
  O  O300  1  0.096916  0.746420  0.341131  1
  O  O301  1  0.750557  0.661886  0.398488  1
  O  O302  1  0.663987  0.847651  0.500202  1
  O  O303  1  0.847289  0.751795  0.588633  1
  O  O304  1  0.624843  0.625686  0.373842  1
  O  O305  1  0.367097  0.621471  0.624674  1
  O  O306  1  0.130511  0.873752  0.623210  1
  O  O307  1  0.372116  0.871298  0.617201  1
  O  O308  1  0.123603  0.873535  0.372394  1
  O  O309  1  0.872815  0.614885  0.374176  1
  O  O310  1  0.623128  0.878716  0.376580  1
  O  O311  1  0.376728  0.626510  0.375469  1
  O  O312  1  0.876488  0.626059  0.622534  1
  O  O313  1  0.622668  0.873074  0.624288  1
  O  O314  1  0.878466  0.876919  0.623560  1
  O  O315  1  0.122353  0.620340  0.377151  1
  O  O316  1  0.339128  0.927084  0.428916  1
  O  O317  1  0.422908  0.825832  0.418516  1
  O  O318  1  0.176101  0.588215  0.571747  1
  O  O319  1  0.076755  0.674456  0.586800  1
  Si  Si320  1  0.572691  0.563376  0.370303  1
  Si  Si321  1  0.371171  0.568593  0.562993  1
  Si  Si322  1  0.068991  0.872631  0.570048  1
  Si  Si323  1  0.428499  0.812813  0.618458  1
  Si  Si324  1  0.320485  0.933806  0.623457  1
  Si  Si325  1  0.679151  0.685940  0.368436  1
  Si  Si326  1  0.879350  0.681735  0.563275  1
  Si  Si327  1  0.684721  0.879360  0.572137  1
  Si  Si328  1  0.933042  0.937096  0.627685  1
  Si  Si329  1  0.131318  0.928297  0.432052  1
  Si  Si330  1  0.437792  0.628257  0.429138  1
  Si  Si331  1  0.070094  0.682325  0.382884  1
  Si  Si332  1  0.179348  0.562387  0.376882  1
  Si  Si333  1  0.822871  0.817836  0.628910  1
  Si  Si334  1  0.623034  0.822065  0.434827  1
  Si  Si335  1  0.813310  0.620701  0.429225  1
  Si  Si336  1  0.282435  0.967533  0.470436  1
  Si  Si337  1  0.470622  0.781299  0.466051  1
  Si  Si338  1  0.217766  0.532523  0.529958  1
  O  O339  1  0.084211  0.568541  0.664544  1
  O  O340  1  0.321470  0.835724  0.335303  1
  O  O341  1  0.060019  0.547538  0.791644  1
  O  O342  1  0.708286  0.809578  0.788912  1
  O  O343  1  0.456577  0.543767  0.809120  1
  O  O344  1  0.037625  0.936433  0.795846  1
  O  O345  1  0.788609  0.702819  0.799185  1
  O  O346  1  0.195690  0.708908  0.798140  1
  O  O347  1  0.942909  0.960538  0.704700  1
  O  O348  1  0.704060  0.951348  0.960276  1
  O  O349  1  0.950868  0.708004  0.937131  1
  O  O350  1  0.548908  0.712843  0.954727  1
  O  O351  1  0.294933  0.692325  0.710090  1
  O  O352  1  0.543910  0.955487  0.691760  1
  O  O353  1  0.698550  0.540027  0.953242  1
  O  O354  1  0.960078  0.562129  0.704297  1
  O  O355  1  0.206845  0.791490  0.692827  1
  O  O356  1  0.813152  0.796715  0.706602  1
  O  O357  1  0.047014  0.798713  0.962449  1
  O  O358  1  0.304469  0.541930  0.941725  1
  O  O359  1  0.588480  0.847486  0.750567  1
  O  O360  1  0.504483  0.661701  0.842832  1
  O  O361  1  0.155081  0.895553  0.753080  1
  O  O362  1  0.743669  0.586604  0.839642  1
  O  O363  1  0.159334  0.752090  0.915134  1
  O  O364  1  0.994155  0.591646  0.896514  1
  O  O365  1  0.639436  0.502257  0.843074  1
  O  O366  1  0.840628  0.594478  0.747977  1
  O  O367  1  0.145433  0.998238  0.836695  1
  O  O368  1  0.412938  0.650186  0.747076  1
  O  O369  1  0.602954  0.752249  0.841957  1
  O  O370  1  0.249496  0.654532  0.904380  1
  O  O371  1  0.591996  0.999224  0.912848  1
  O  O372  1  0.120999  0.630434  0.875415  1
  O  O373  1  0.633773  0.878971  0.872897  1
  O  O374  1  0.378111  0.629047  0.874239  1
  O  O375  1  0.119309  0.875101  0.880854  1
  O  O376  1  0.866506  0.626423  0.875003  1
  O  O377  1  0.625723  0.628452  0.886403  1
  O  O378  1  0.171392  0.666282  0.678086  1
  O  O379  1  0.824000  0.915106  0.925642  1
  O  O380  1  0.929739  0.836325  0.919796  1
  O  O381  1  0.093373  0.504209  0.910301  1
  O  O382  1  0.830843  0.821072  0.833744  1
  O  O383  1  0.910045  0.926905  0.826005  1
  Si  Si384  1  0.067436  0.569449  0.869420  1
  Si  Si385  1  0.632267  0.822586  0.814278  1
  Si  Si386  1  0.437677  0.622105  0.819128  1
  Si  Si387  1  0.115236  0.925404  0.817013  1
  Si  Si388  1  0.810497  0.626588  0.816017  1
  Si  Si389  1  0.181023  0.685346  0.874232  1
  Si  Si390  1  0.629666  0.930899  0.935386  1
  Si  Si391  1  0.929417  0.630463  0.926408  1
  Si  Si392  1  0.571129  0.688495  0.880587  1
  Si  Si393  1  0.370036  0.677245  0.683787  1
  Si  Si394  1  0.563192  0.877705  0.679500  1
  Si  Si395  1  0.676102  0.564902  0.879427  1
  Si  Si396  1  0.882428  0.571378  0.682508  1
  Si  Si397  1  0.185704  0.869210  0.682787  1
  Si  Si398  1  0.122184  0.819732  0.940408  1
  Si  Si399  1  0.318715  0.620748  0.929264  1
  Si  Si400  1  0.218388  0.716260  0.720814  1
  Si  Si401  1  0.782536  0.969170  0.969226  1
  Si  Si402  1  0.967793  0.781857  0.966305  1
  Si  Si403  1  0.034294  0.531309  0.716400  1
  Si  Si404  1  0.784042  0.781581  0.780781  1
  Si  Si405  1  0.964220  0.968637  0.782509  1
  Si  Si406  1  0.873615  0.874971  0.876175  1
  O  O407  1  0.908664  0.600171  0.998955  1
  O  O408  1  0.590834  0.897615  0.998144  1
