# generated using pymatgen
data_SiO2
_symmetry_space_group_name_H-M   'P 1'
_cell_length_a   9.50193370
_cell_length_b   30.65219921
_cell_length_c   7.29401298
_cell_angle_alpha   90.00000000
_cell_angle_beta   90.45000000
_cell_angle_gamma   90.00000000
_symmetry_Int_Tables_number   1
_chemical_formula_structural   SiO2
_chemical_formula_sum   'Si44 O88'
_cell_volume   2124.35342943
_cell_formula_units_Z   44
loop_
 _symmetry_equiv_pos_site_id
 _symmetry_equiv_pos_as_xyz
  1  'x, y, z'
loop_
 _atom_site_type_symbol
 _atom_site_label
 _atom_site_symmetry_multiplicity
 _atom_site_fract_x
 _atom_site_fract_y
 _atom_site_fract_z
 _atom_site_occupancy
  O  O1  1  0.288813  0.137137  0.171882  1
  O  O2  1  0.788833  0.637132  0.172034  1
  O  O3  1  0.711308  0.137134  0.828206  1
  O  O4  1  0.211326  0.637139  0.828355  1
  O  O5  1  0.711359  0.862770  0.828314  1
  O  O6  1  0.211304  0.362778  0.828263  1
  O  O7  1  0.288865  0.862771  0.171993  1
  O  O8  1  0.788810  0.362762  0.171939  1
  O  O9  1  0.087180  0.186265  0.262783  1
  O  O10  1  0.587222  0.686269  0.262883  1
  O  O11  1  0.912923  0.186272  0.737386  1
  O  O12  1  0.412964  0.686267  0.737485  1
  O  O13  1  0.912975  0.813635  0.737462  1
  O  O14  1  0.412918  0.313642  0.737380  1
  O  O15  1  0.087232  0.813641  0.262860  1
  O  O16  1  0.587175  0.313633  0.262777  1
  O  O17  1  0.283172  0.174501  0.499588  1
  O  O18  1  0.783185  0.674501  0.499735  1
  O  O19  1  0.716974  0.174504  0.500508  1
  O  O20  1  0.216984  0.674505  0.500656  1
  O  O21  1  0.717007  0.825402  0.500620  1
  O  O22  1  0.216937  0.325412  0.500557  1
  O  O23  1  0.283207  0.825403  0.499700  1
  O  O24  1  0.783136  0.325395  0.499636  1
  O  O25  1  0.116175  0.113510  0.417080  1
  O  O26  1  0.616164  0.613517  0.417202  1
  O  O27  1  0.883982  0.113522  0.583046  1
  O  O28  1  0.383975  0.613514  0.583175  1
  O  O29  1  0.884017  0.886388  0.583135  1
  O  O30  1  0.383951  0.386394  0.583067  1
  O  O31  1  0.116206  0.886393  0.417162  1
  O  O32  1  0.616145  0.386386  0.417100  1
  O  O33  1  0.000036  0.388361  0.000083  1
  O  O34  1  0.500106  0.888361  0.000142  1
  O  O35  1  0.000081  0.611545  0.000190  1
  O  O36  1  0.500059  0.111544  0.000042  1
  O  O37  1  0.185307  0.339853  0.157225  1
  O  O38  1  0.685372  0.839854  0.157294  1
  O  O39  1  0.814756  0.339857  0.842946  1
  O  O40  1  0.314819  0.839857  0.843013  1
  O  O41  1  0.814798  0.660047  0.843052  1
  O  O42  1  0.314784  0.160052  0.842907  1
  O  O43  1  0.185350  0.660054  0.157333  1
  O  O44  1  0.685335  0.160049  0.157186  1
  O  O45  1  0.250511  0.418526  0.085496  1
  O  O46  1  0.750595  0.918520  0.085520  1
  O  O47  1  0.749529  0.418521  0.914776  1
  O  O48  1  0.249614  0.918526  0.914802  1
  O  O49  1  0.749595  0.581377  0.914832  1
  O  O50  1  0.249561  0.081385  0.914689  1
  O  O51  1  0.250577  0.581388  0.085551  1
  O  O52  1  0.750543  0.081380  0.085410  1
  O  O53  1  0.159385  0.999955  0.887483  1
  O  O54  1  0.659357  0.499949  0.887513  1
  O  O55  1  0.840770  0.999951  0.112744  1
  O  O56  1  0.340743  0.499957  0.112775  1
  O  O57  1  0.000058  0.060092  0.000078  1
  O  O58  1  0.500083  0.560092  0.000190  1
  O  O59  1  0.000099  0.939814  0.000149  1
  O  O60  1  0.500008  0.439814  0.000069  1
  O  O61  1  0.067423  0.057629  0.664476  1
  O  O62  1  0.567454  0.557634  0.664585  1
  O  O63  1  0.932670  0.057636  0.335673  1
  O  O64  1  0.432697  0.557630  0.335786  1
  O  O65  1  0.932725  0.942276  0.335750  1
  O  O66  1  0.432687  0.442274  0.335687  1
  O  O67  1  0.067482  0.942272  0.664549  1
  O  O68  1  0.567440  0.442272  0.664489  1
  O  O69  1  0.079386  0.269377  0.289906  1
  O  O70  1  0.579429  0.769379  0.289970  1
  O  O71  1  0.920722  0.269381  0.710307  1
  O  O72  1  0.420765  0.769378  0.710375  1
  O  O73  1  0.920764  0.730523  0.710391  1
  O  O74  1  0.420719  0.230530  0.710262  1
  O  O75  1  0.079429  0.730532  0.289986  1
  O  O76  1  0.579382  0.230524  0.289860  1
  O  O77  1  0.344948  0.279016  0.272234  1
  O  O78  1  0.845001  0.779015  0.272260  1
  O  O79  1  0.655147  0.279011  0.728019  1
  O  O80  1  0.155199  0.779013  0.728044  1
  O  O81  1  0.655194  0.720892  0.728088  1
  O  O82  1  0.155155  0.220891  0.727919  1
  O  O83  1  0.344995  0.720891  0.272304  1
  O  O84  1  0.844956  0.220893  0.272135  1
  O  O85  1  0.000111  0.232394  0.000076  1
  O  O86  1  0.500079  0.732393  0.000185  1
  O  O87  1  0.000118  0.767513  0.000166  1
  O  O88  1  0.499998  0.267512  0.000092  1
  Si  Si89  1  0.124336  0.050000  0.865748  1
  Si  Si90  1  0.624358  0.549999  0.865855  1
  Si  Si91  1  0.875775  0.050000  0.134401  1
  Si  Si92  1  0.375795  0.550002  0.134507  1
  Si  Si93  1  0.875817  0.949906  0.134474  1
  Si  Si94  1  0.375751  0.449907  0.134431  1
  Si  Si95  1  0.124380  0.949906  0.865822  1
  Si  Si96  1  0.624312  0.449904  0.865778  1
  Si  Si97  1  0.198489  0.153002  0.336454  1
  Si  Si98  1  0.698507  0.653005  0.336592  1
  Si  Si99  1  0.801641  0.153009  0.663658  1
  Si  Si100  1  0.301658  0.653006  0.663794  1
  Si  Si101  1  0.801687  0.846899  0.663757  1
  Si  Si102  1  0.301620  0.346906  0.663697  1
  Si  Si103  1  0.198536  0.846902  0.336556  1
  Si  Si104  1  0.698469  0.346894  0.336493  1
  Si  Si105  1  0.161325  0.378344  0.020955  1
  Si  Si106  1  0.661393  0.878341  0.021005  1
  Si  Si107  1  0.838748  0.378341  0.979246  1
  Si  Si108  1  0.338816  0.878343  0.979297  1
  Si  Si109  1  0.838790  0.621561  0.979339  1
  Si  Si110  1  0.338770  0.121565  0.979191  1
  Si  Si111  1  0.161367  0.621567  0.021046  1
  Si  Si112  1  0.661348  0.121562  0.020900  1
  Si  Si113  1  0.202297  0.303608  0.305756  1
  Si  Si114  1  0.702352  0.803605  0.305811  1
  Si  Si115  1  0.797790  0.303603  0.694452  1
  Si  Si116  1  0.297847  0.803605  0.694508  1
  Si  Si117  1  0.797837  0.696298  0.694543  1
  Si  Si118  1  0.297807  0.196301  0.694392  1
  Si  Si119  1  0.202343  0.696303  0.305846  1
  Si  Si120  1  0.702315  0.196300  0.305696  1
  Si  Si121  1  0.001180  0.228004  0.212108  1
  Si  Si122  1  0.501204  0.728005  0.212217  1
  Si  Si123  1  0.998954  0.228007  0.788043  1
  Si  Si124  1  0.498977  0.728005  0.788153  1
  Si  Si125  1  0.998990  0.771898  0.788133  1
  Si  Si126  1  0.498923  0.271903  0.788060  1
  Si  Si127  1  0.001217  0.771904  0.212197  1
  Si  Si128  1  0.501149  0.271898  0.212125  1
  Si  Si129  1  0.000064  0.083599  0.500071  1
  Si  Si130  1  0.500073  0.583598  0.500185  1
  Si  Si131  1  0.000105  0.916307  0.500146  1
  Si  Si132  1  0.500059  0.416307  0.500087  1
