# generated using pymatgen
data_SiO2
_symmetry_space_group_name_H-M   'P 1'
_cell_length_a   7.46542387
_cell_length_b   14.18484120
_cell_length_c   18.67902703
_cell_angle_alpha   90.00000000
_cell_angle_beta   90.00000000
_cell_angle_gamma   90.00000000
_symmetry_Int_Tables_number   1
_chemical_formula_structural   SiO2
_chemical_formula_sum   'Si36 O72'
_cell_volume   1978.03148372
_cell_formula_units_Z   36
loop_
 _symmetry_equiv_pos_site_id
 _symmetry_equiv_pos_as_xyz
  1  'x, y, z'
loop_
 _atom_site_type_symbol
 _atom_site_label
 _atom_site_symmetry_multiplicity
 _atom_site_fract_x
 _atom_site_fract_y
 _atom_site_fract_z
 _atom_site_occupancy
  O  O1  1  0.330523  0.211539  0.250722  1
  O  O2  1  0.830465  0.711528  0.750728  1
  O  O3  1  0.669824  0.211528  0.250733  1
  O  O4  1  0.169768  0.711538  0.750717  1
  O  O5  1  0.330521  0.788216  0.250718  1
  O  O6  1  0.830467  0.288225  0.750733  1
  O  O7  1  0.669823  0.788225  0.250728  1
  O  O8  1  0.169769  0.288215  0.750722  1
  O  O9  1  0.245660  0.261574  0.120347  1
  O  O10  1  0.745621  0.761563  0.620352  1
  O  O11  1  0.754666  0.261574  0.120357  1
  O  O12  1  0.254630  0.761562  0.620341  1
  O  O13  1  0.245657  0.738190  0.120341  1
  O  O14  1  0.745626  0.238179  0.620357  1
  O  O15  1  0.754667  0.738191  0.120351  1
  O  O16  1  0.254632  0.238178  0.620347  1
  O  O17  1  0.000173  0.196061  0.201432  1
  O  O18  1  0.500117  0.696053  0.701429  1
  O  O19  1  0.000171  0.803700  0.201429  1
  O  O20  1  0.500119  0.303693  0.701432  1
  O  O21  1  0.249517  0.090589  0.157544  1
  O  O22  1  0.749464  0.590580  0.657550  1
  O  O23  1  0.750829  0.090588  0.157549  1
  O  O24  1  0.250770  0.590580  0.657545  1
  O  O25  1  0.249520  0.909173  0.157545  1
  O  O26  1  0.749461  0.409165  0.657549  1
  O  O27  1  0.750825  0.909174  0.157550  1
  O  O28  1  0.250773  0.409164  0.657544  1
  O  O29  1  0.264179  0.594367  0.031565  1
  O  O30  1  0.764126  0.094358  0.531576  1
  O  O31  1  0.736165  0.594368  0.031573  1
  O  O32  1  0.236111  0.094356  0.531568  1
  O  O33  1  0.264180  0.405397  0.031567  1
  O  O34  1  0.764124  0.905386  0.531573  1
  O  O35  1  0.736165  0.405396  0.031577  1
  O  O36  1  0.236109  0.905385  0.531564  1
  O  O37  1  0.169799  0.755697  0.987681  1
  O  O38  1  0.669746  0.255692  0.487699  1
  O  O39  1  0.830545  0.755700  0.987693  1
  O  O40  1  0.330492  0.255688  0.487687  1
  O  O41  1  0.169800  0.244065  0.987687  1
  O  O42  1  0.669741  0.744054  0.487693  1
  O  O43  1  0.830548  0.244063  0.987699  1
  O  O44  1  0.330487  0.744055  0.487680  1
  O  O45  1  0.500172  0.724454  0.030702  1
  O  O46  1  0.000119  0.224443  0.530708  1
  O  O47  1  0.500173  0.275310  0.030707  1
  O  O48  1  0.000115  0.775299  0.530702  1
  O  O49  1  0.000169  0.095393  0.954423  1
  O  O50  1  0.500120  0.595383  0.454419  1
  O  O51  1  0.000170  0.904370  0.954419  1
  O  O52  1  0.500121  0.404360  0.454423  1
  O  O53  1  0.000141  0.240141  0.867919  1
  O  O54  1  0.500149  0.740131  0.367913  1
  O  O55  1  0.000139  0.759623  0.867913  1
  O  O56  1  0.500151  0.259613  0.367919  1
  O  O57  1  0.000150  0.591140  0.824903  1
  O  O58  1  0.500138  0.091133  0.324902  1
  O  O59  1  0.000151  0.408620  0.824902  1
  O  O60  1  0.500139  0.908614  0.324903  1
  O  O61  1  0.500177  0.999882  0.096309  1
  O  O62  1  0.000113  0.499871  0.596310  1
  O  O63  1  0.169978  0.999879  0.046323  1
  O  O64  1  0.669910  0.499874  0.546328  1
  O  O65  1  0.830379  0.999879  0.046328  1
  O  O66  1  0.330312  0.499874  0.546323  1
  O  O67  1  0.500179  0.499880  0.966874  1
  O  O68  1  0.000112  0.999873  0.466874  1
  O  O69  1  0.169705  0.499879  0.920862  1
  O  O70  1  0.669640  0.999875  0.420872  1
  O  O71  1  0.830650  0.499879  0.920873  1
  O  O72  1  0.330585  0.999874  0.420862  1
  Si  Si73  1  0.206179  0.192574  0.184198  1
  Si  Si74  1  0.706127  0.692564  0.684202  1
  Si  Si75  1  0.794163  0.192572  0.184206  1
  Si  Si76  1  0.294109  0.692566  0.684194  1
  Si  Si77  1  0.206178  0.807187  0.184195  1
  Si  Si78  1  0.706129  0.307181  0.684206  1
  Si  Si79  1  0.794162  0.807189  0.184202  1
  Si  Si80  1  0.294112  0.307179  0.684198  1
  Si  Si81  1  0.294105  0.703887  0.042791  1
  Si  Si82  1  0.794056  0.203876  0.542804  1
  Si  Si83  1  0.706236  0.703888  0.042799  1
  Si  Si84  1  0.206185  0.203875  0.542796  1
  Si  Si85  1  0.294107  0.295878  0.042796  1
  Si  Si86  1  0.794052  0.795867  0.542799  1
  Si  Si87  1  0.706236  0.295877  0.042805  1
  Si  Si88  1  0.206181  0.795867  0.542790  1
  Si  Si89  1  0.000165  0.205965  0.947500  1
  Si  Si90  1  0.500123  0.705954  0.447494  1
  Si  Si91  1  0.000164  0.793798  0.947493  1
  Si  Si92  1  0.500127  0.293788  0.447499  1
  Si  Si93  1  0.000129  0.696287  0.799439  1
  Si  Si94  1  0.500161  0.196283  0.299442  1
  Si  Si95  1  0.000130  0.303471  0.799442  1
  Si  Si96  1  0.500160  0.803466  0.299439  1
  Si  Si97  1  0.293544  0.999881  0.113766  1
  Si  Si98  1  0.793482  0.499872  0.613768  1
  Si  Si99  1  0.706807  0.999881  0.113768  1
  Si  Si100  1  0.206745  0.499872  0.613766  1
  Si  Si101  1  0.295135  0.499881  0.988249  1
  Si  Si102  1  0.795074  0.999873  0.488258  1
  Si  Si103  1  0.705216  0.499881  0.988258  1
  Si  Si104  1  0.205154  0.999872  0.488249  1
  Si  Si105  1  0.000166  0.499880  0.871621  1
  Si  Si106  1  0.500123  0.999874  0.371621  1
  Si  Si107  1  0.000174  0.999881  0.996993  1
  Si  Si108  1  0.500115  0.499874  0.496993  1
