# generated using pymatgen
data_SiO2
_symmetry_space_group_name_H-M   'P 1'
_cell_length_a   13.22244738
_cell_length_b   13.22666398
_cell_length_c   15.58156643
_cell_angle_alpha   90.00000000
_cell_angle_beta   90.00000000
_cell_angle_gamma   120.00000000
_symmetry_Int_Tables_number   1
_chemical_formula_structural   SiO2
_chemical_formula_sum   'Si34 O68'
_cell_volume   2359.95605029
_cell_formula_units_Z   34
loop_
 _symmetry_equiv_pos_site_id
 _symmetry_equiv_pos_as_xyz
  1  'x, y, z'
loop_
 _atom_site_type_symbol
 _atom_site_label
 _atom_site_symmetry_multiplicity
 _atom_site_fract_x
 _atom_site_fract_y
 _atom_site_fract_z
 _atom_site_occupancy
  O  O1  1  0.205321  0.774100  0.014450  1
  O  O2  1  0.225773  0.430879  0.013951  1
  O  O3  1  0.382132  0.362331  0.051835  1
  O  O4  1  0.424681  0.860669  0.034190  1
  O  O5  1  0.139458  0.563727  0.033665  1
  O  O6  1  0.436077  0.575223  0.034215  1
  O  O7  1  0.144909  0.679530  0.164233  1
  O  O8  1  0.319412  0.464381  0.164223  1
  O  O9  1  0.433571  0.657030  0.250053  1
  O  O10  1  0.342206  0.775594  0.250053  1
  O  O11  1  0.223594  0.565711  0.250053  1
  Si  Si12  1  0.478143  0.328129  0.031019  1
  Si  Si13  1  0.114415  0.661837  0.065890  1
  Si  Si14  1  0.337599  0.451898  0.065897  1
  Si  Si15  1  0.471626  0.792961  0.250053  1
  Si  Si16  1  0.206236  0.677718  0.250053  1
  Si  Si17  1  0.321470  0.527637  0.250053  1
  O  O18  1  0.430912  0.205064  0.514115  1
  O  O19  1  0.205322  0.774100  0.485657  1
  O  O20  1  0.225773  0.430879  0.486155  1
  O  O21  1  0.334346  0.777301  0.609382  1
  O  O22  1  0.222865  0.556886  0.610127  1
  O  O23  1  0.443258  0.665773  0.609299  1
  O  O24  1  0.382132  0.362330  0.448270  1
  O  O25  1  0.362395  0.980173  0.551569  1
  O  O26  1  0.019800  0.382237  0.552142  1
  O  O27  1  0.424681  0.860668  0.465916  1
  O  O28  1  0.139459  0.563727  0.466442  1
  O  O29  1  0.436077  0.575223  0.465891  1
  O  O30  1  0.464542  0.145353  0.664305  1
  O  O31  1  0.144910  0.679531  0.335873  1
  O  O32  1  0.319413  0.464381  0.335883  1
  Si  Si33  1  0.478143  0.328129  0.469086  1
  Si  Si34  1  0.328460  0.850107  0.530615  1
  Si  Si35  1  0.150003  0.478175  0.531253  1
  Si  Si36  1  0.451920  0.114261  0.566024  1
  Si  Si37  1  0.114416  0.661838  0.434217  1
  Si  Si38  1  0.337599  0.451898  0.434208  1
  Si  Si39  1  0.333781  0.666946  0.649471  1
  O  O40  1  0.430911  0.205064  0.985989  1
  O  O41  1  0.334345  0.777301  0.890725  1
  O  O42  1  0.222865  0.556886  0.889979  1
  O  O43  1  0.443258  0.665774  0.890807  1
  O  O44  1  0.362394  0.980173  0.948537  1
  O  O45  1  0.019801  0.382237  0.947964  1
  O  O46  1  0.464541  0.145352  0.835800  1
  O  O47  1  0.336045  0.669007  0.750053  1
  Si  Si48  1  0.328459  0.850108  0.969491  1
  Si  Si49  1  0.150003  0.478175  0.968853  1
  Si  Si50  1  0.451919  0.114261  0.934080  1
  Si  Si51  1  0.333781  0.666946  0.850636  1
  O  O52  1  0.569080  0.794589  0.014554  1
  O  O53  1  0.665737  0.222481  0.109071  1
  O  O54  1  0.777257  0.442863  0.109834  1
  O  O55  1  0.556808  0.333932  0.109891  1
  O  O56  1  0.637542  0.019583  0.051484  1
  O  O57  1  0.980335  0.617494  0.051817  1
  O  O58  1  0.535033  0.854523  0.164384  1
  O  O59  1  0.666807  0.330763  0.250052  1
  Si  Si60  1  0.671568  0.149635  0.030366  1
  Si  Si61  1  0.850117  0.521532  0.030995  1
  Si  Si62  1  0.547943  0.885557  0.066100  1
  Si  Si63  1  0.666638  0.332827  0.149470  1
  O  O64  1  0.794745  0.225570  0.514667  1
  O  O65  1  0.774243  0.568716  0.514174  1
  O  O66  1  0.569080  0.794589  0.485552  1
  O  O67  1  0.665737  0.222480  0.391033  1
  O  O68  1  0.777258  0.442863  0.390270  1
  O  O69  1  0.556809  0.333932  0.390214  1
  O  O70  1  0.637542  0.019582  0.448621  1
  O  O71  1  0.980335  0.617494  0.448288  1
  O  O72  1  0.617789  0.637208  0.551420  1
  O  O73  1  0.575270  0.139060  0.534381  1
  O  O74  1  0.860683  0.435969  0.533875  1
  O  O75  1  0.563844  0.424288  0.533809  1
  O  O76  1  0.854852  0.320107  0.664370  1
  O  O77  1  0.679921  0.535067  0.664163  1
  O  O78  1  0.535032  0.854522  0.335722  1
  Si  Si79  1  0.671568  0.149635  0.469738  1
  Si  Si80  1  0.850117  0.521532  0.469109  1
  Si  Si81  1  0.521854  0.671489  0.530515  1
  Si  Si82  1  0.885689  0.337833  0.566093  1
  Si  Si83  1  0.662121  0.547536  0.565768  1
  Si  Si84  1  0.547942  0.885556  0.434006  1
  Si  Si85  1  0.666638  0.332827  0.350634  1
  O  O86  1  0.794745  0.225570  0.985437  1
  O  O87  1  0.774243  0.568717  0.985930  1
  O  O88  1  0.617789  0.637208  0.948685  1
  O  O89  1  0.575270  0.139060  0.965723  1
  O  O90  1  0.860683  0.435969  0.966229  1
  O  O91  1  0.563843  0.424289  0.966295  1
  O  O92  1  0.854854  0.320108  0.835734  1
  O  O93  1  0.679921  0.535067  0.835941  1
  O  O94  1  0.565965  0.342622  0.750053  1
  O  O95  1  0.657317  0.224049  0.750053  1
  O  O96  1  0.775930  0.433948  0.750052  1
  Si  Si97  1  0.521854  0.671489  0.969591  1
  Si  Si98  1  0.885689  0.337834  0.934011  1
  Si  Si99  1  0.662121  0.547536  0.934337  1
  Si  Si100  1  0.527888  0.206702  0.750052  1
  Si  Si101  1  0.793288  0.321932  0.750052  1
  Si  Si102  1  0.678024  0.472000  0.750052  1
