# generated using pymatgen
data_SiO2
_symmetry_space_group_name_H-M   'P 1'
_cell_length_a   18.24638661
_cell_length_b   18.24573394
_cell_length_c   20.25815866
_cell_angle_alpha   90.00000000
_cell_angle_beta   90.00000000
_cell_angle_gamma   90.00000000
_symmetry_Int_Tables_number   1
_chemical_formula_structural   SiO2
_chemical_formula_sum   'Si112 O224'
_cell_volume   6744.32016126
_cell_formula_units_Z   112
loop_
 _symmetry_equiv_pos_site_id
 _symmetry_equiv_pos_as_xyz
  1  'x, y, z'
loop_
 _atom_site_type_symbol
 _atom_site_label
 _atom_site_symmetry_multiplicity
 _atom_site_fract_x
 _atom_site_fract_y
 _atom_site_fract_z
 _atom_site_occupancy
  O  O1  1  0.876801  0.258297  0.199554  1
  O  O2  1  0.741746  0.123221  0.199553  1
  O  O3  1  0.241741  0.376719  0.300513  1
  O  O4  1  0.376801  0.241644  0.300509  1
  O  O5  1  0.949756  0.242138  0.093049  1
  O  O6  1  0.757902  0.050272  0.093045  1
  O  O7  1  0.826382  0.314704  0.094787  1
  O  O8  1  0.685331  0.173641  0.094791  1
  O  O9  1  0.822708  0.177325  0.111969  1
  O  O10  1  0.951697  0.243514  0.303340  1
  O  O11  1  0.756522  0.048329  0.303344  1
  O  O12  1  0.256522  0.451615  0.196723  1
  O  O13  1  0.451695  0.256433  0.196722  1
  O  O14  1  0.825452  0.313802  0.304144  1
  O  O15  1  0.686236  0.174567  0.304143  1
  O  O16  1  0.186236  0.325378  0.195920  1
  O  O17  1  0.325448  0.186144  0.195917  1
  O  O18  1  0.824279  0.175754  0.285913  1
  O  O19  1  0.324278  0.324192  0.214155  1
  O  O20  1  0.088755  0.253043  0.123772  1
  O  O21  1  0.253094  0.088672  0.123773  1
  O  O22  1  0.045524  0.230840  0.000036  1
  O  O23  1  0.034784  0.134562  0.089928  1
  O  O24  1  0.134597  0.034752  0.089906  1
  O  O25  1  0.188088  0.188015  0.192434  1
  O  O26  1  0.688090  0.311929  0.307629  1
  O  O27  1  0.081674  0.252318  0.249510  1
  O  O28  1  0.252373  0.081589  0.249509  1
  O  O29  1  0.752374  0.418356  0.250555  1
  O  O30  1  0.581674  0.247626  0.250553  1
  O  O31  1  0.038041  0.136414  0.300352  1
  O  O32  1  0.136458  0.038007  0.300368  1
  O  O33  1  0.636458  0.461938  0.199699  1
  O  O34  1  0.538042  0.363530  0.199713  1
  O  O35  1  0.746008  0.427520  0.125512  1
  O  O36  1  0.572507  0.254004  0.125511  1
  Si  Si37  1  0.559553  0.440440  0.227418  1
  O  O38  1  0.065243  0.065178  0.195656  1
  O  O39  1  0.565245  0.434761  0.304411  1
  O  O40  1  0.690707  0.309317  0.085661  1
  Si  Si41  1  0.871048  0.248234  0.123228  1
  Si  Si42  1  0.751805  0.128981  0.123228  1
  Si  Si43  1  0.871411  0.247750  0.275992  1
  Si  Si44  1  0.752290  0.128614  0.275992  1
  Si  Si45  1  0.252289  0.371330  0.224075  1
  Si  Si46  1  0.371409  0.252194  0.224070  1
  Si  Si47  1  0.030060  0.218637  0.075744  1
  Si  Si48  1  0.218671  0.029989  0.075740  1
  Si  Si49  1  0.135579  0.256085  0.189202  1
  Si  Si50  1  0.256149  0.135496  0.189202  1
  Si  Si51  1  0.756151  0.364448  0.310861  1
  Si  Si52  1  0.635579  0.243860  0.310860  1
  Si  Si53  1  0.034680  0.221676  0.308251  1
  Si  Si54  1  0.221717  0.034606  0.308253  1
  Si  Si55  1  0.721716  0.465338  0.191811  1
  Si  Si56  1  0.534678  0.278268  0.191812  1
  Si  Si57  1  0.757515  0.362163  0.075886  1
  Si  Si58  1  0.637865  0.242504  0.075888  1
  Si  Si59  1  0.059358  0.059314  0.118740  1
  Si  Si60  1  0.059552  0.059502  0.272650  1
  O  O61  1  0.618354  0.239487  0.000032  1
  O  O62  1  0.230901  0.045440  0.000034  1
  O  O63  1  0.760529  0.381675  0.000030  1
  O  O64  1  0.500020  0.499975  0.212282  1
  O  O65  1  0.257915  0.449678  0.593059  1
  O  O66  1  0.449771  0.257820  0.593050  1
  O  O67  1  0.257904  0.449669  0.407020  1
  O  O68  1  0.449758  0.257807  0.407013  1
  O  O69  1  0.185346  0.326308  0.594780  1
  O  O70  1  0.326397  0.185251  0.594781  1
  O  O71  1  0.185333  0.326302  0.405281  1
  O  O72  1  0.326384  0.185239  0.405276  1
  O  O73  1  0.322722  0.322626  0.611975  1
  O  O74  1  0.322710  0.322617  0.388094  1
  O  O75  1  0.753119  0.411263  0.623766  1
  O  O76  1  0.588772  0.246899  0.623762  1
  O  O77  1  0.753099  0.411272  0.376291  1
  O  O78  1  0.588756  0.246902  0.376290  1
  O  O79  1  0.730903  0.454497  0.500031  1
  O  O80  1  0.545525  0.269099  0.500028  1
  O  O81  1  0.634624  0.465202  0.589921  1
  O  O82  1  0.534815  0.365385  0.589915  1
  O  O83  1  0.634601  0.465191  0.410159  1
  O  O84  1  0.534788  0.365382  0.410142  1
  O  O85  1  0.072510  0.245941  0.374552  1
  O  O86  1  0.246010  0.072423  0.374552  1
  O  O87  1  0.072525  0.245949  0.625520  1
  O  O88  1  0.246031  0.072433  0.625516  1
  O  O89  1  0.500022  0.499971  0.395987  1
  O  O90  1  0.190708  0.190626  0.414404  1
  O  O91  1  0.190720  0.190632  0.585663  1
  O  O92  1  0.118353  0.260450  0.500034  1
  O  O93  1  0.260532  0.118266  0.500033  1
  Si  Si94  1  0.251815  0.370965  0.623231  1
  Si  Si95  1  0.371063  0.251717  0.623228  1
  Si  Si96  1  0.251805  0.370961  0.376839  1
  Si  Si97  1  0.371049  0.251708  0.376834  1
  Si  Si98  1  0.718696  0.469950  0.575739  1
  Si  Si99  1  0.530075  0.281309  0.575737  1
  Si  Si100  1  0.718676  0.469952  0.424325  1
  Si  Si101  1  0.530061  0.281306  0.424321  1
  Si  Si102  1  0.137866  0.257438  0.424178  1
  Si  Si103  1  0.257517  0.137780  0.424178  1
  Si  Si104  1  0.137876  0.257443  0.575888  1
  Si  Si105  1  0.257530  0.137788  0.575887  1
  Si  Si106  1  0.559383  0.440628  0.618742  1
  Si  Si107  1  0.559361  0.440629  0.381327  1
  O  O108  1  0.500042  0.499968  0.604081  1
  O  O109  1  0.241746  0.376712  0.699556  1
  O  O110  1  0.376816  0.241646  0.699553  1
  O  O111  1  0.876809  0.258293  0.800511  1
  O  O112  1  0.741747  0.123222  0.800512  1
  O  O113  1  0.949773  0.242118  0.907009  1
  O  O114  1  0.757917  0.050256  0.907008  1
  O  O115  1  0.826397  0.314684  0.905287  1
  O  O116  1  0.685351  0.173626  0.905290  1
  O  O117  1  0.822725  0.177309  0.888090  1
  O  O118  1  0.256537  0.451613  0.803342  1
  O  O119  1  0.451718  0.256429  0.803332  1
  O  O120  1  0.951716  0.243502  0.696733  1
  O  O121  1  0.756537  0.048319  0.696729  1
  O  O122  1  0.186254  0.325375  0.804155  1
  O  O123  1  0.325471  0.186148  0.804149  1
  O  O124  1  0.825470  0.313787  0.695911  1
  O  O125  1  0.686254  0.174558  0.695910  1
  O  O126  1  0.324297  0.324192  0.785910  1
  O  O127  1  0.824296  0.175741  0.714155  1
  O  O128  1  0.088773  0.253038  0.876302  1
  O  O129  1  0.253120  0.088673  0.876297  1
  O  O130  1  0.500046  0.499965  0.787790  1
  O  O131  1  0.034817  0.134552  0.910150  1
  O  O132  1  0.134625  0.034733  0.910143  1
  O  O133  1  0.688109  0.311921  0.692424  1
  O  O134  1  0.188108  0.188014  0.807639  1
  O  O135  1  0.752397  0.418342  0.749503  1
  O  O136  1  0.581696  0.247620  0.749500  1
  O  O137  1  0.081694  0.252314  0.750565  1
  O  O138  1  0.252397  0.081594  0.750559  1
  O  O139  1  0.636487  0.461934  0.800361  1
  O  O140  1  0.538075  0.363520  0.800359  1
  O  O141  1  0.038073  0.136412  0.699708  1
  O  O142  1  0.136487  0.038000  0.699704  1
  O  O143  1  0.746032  0.427501  0.874546  1
  O  O144  1  0.572528  0.253979  0.874544  1
  Si  Si145  1  0.637878  0.242490  0.924178  1
  O  O146  1  0.565258  0.434749  0.695658  1
  O  O147  1  0.065259  0.065184  0.804408  1
  Si  Si148  1  0.059579  0.059501  0.727414  1
  O  O149  1  0.690719  0.309303  0.914401  1
  Si  Si150  1  0.559579  0.440431  0.772652  1
  Si  Si151  1  0.059384  0.059308  0.881324  1
  Si  Si152  1  0.871063  0.248220  0.876836  1
  Si  Si153  1  0.751818  0.128969  0.876837  1
  Si  Si154  1  0.252304  0.371326  0.775994  1
  Si  Si155  1  0.371430  0.252196  0.775991  1
  Si  Si156  1  0.871428  0.247738  0.724072  1
  Si  Si157  1  0.752303  0.128607  0.724073  1
  Si  Si158  1  0.030075  0.218628  0.924327  1
  Si  Si159  1  0.218697  0.029986  0.924325  1
  Si  Si160  1  0.756172  0.364437  0.689195  1
  Si  Si161  1  0.635598  0.243853  0.689190  1
  Si  Si162  1  0.135597  0.256082  0.810873  1
  Si  Si163  1  0.256172  0.135499  0.810868  1
  Si  Si164  1  0.721746  0.465325  0.808249  1
  Si  Si165  1  0.534703  0.278257  0.808244  1
  Si  Si166  1  0.034701  0.221675  0.691821  1
  Si  Si167  1  0.221746  0.034610  0.691814  1
  Si  Si168  1  0.757529  0.362148  0.924177  1
  O  O169  1  0.123251  0.741630  0.199554  1
  O  O170  1  0.258299  0.876712  0.199557  1
  O  O171  1  0.758299  0.623228  0.300512  1
  O  O172  1  0.623247  0.758309  0.300515  1
  O  O173  1  0.050281  0.757806  0.093059  1
  O  O174  1  0.242133  0.949677  0.093056  1
  O  O175  1  0.173662  0.685247  0.094774  1
  O  O176  1  0.314701  0.826309  0.094783  1
  O  O177  1  0.177326  0.822622  0.111976  1
  O  O178  1  0.048337  0.756422  0.303329  1
  O  O179  1  0.243512  0.951611  0.303340  1
  O  O180  1  0.743513  0.548333  0.196722  1
  O  O181  1  0.548338  0.743519  0.196736  1
  O  O182  1  0.174585  0.686137  0.304156  1
  O  O183  1  0.313796  0.825374  0.304157  1
  O  O184  1  0.813796  0.674569  0.195912  1
  O  O185  1  0.674585  0.813805  0.195917  1
  O  O186  1  0.175754  0.824184  0.285912  1
  O  O187  1  0.675755  0.675758  0.214157  1
  O  O188  1  0.911278  0.746903  0.123762  1
  O  O189  1  0.746939  0.911277  0.123769  1
  O  O190  1  0.965252  0.865383  0.089917  1
  O  O191  1  0.865441  0.965197  0.089915  1
  O  O192  1  0.811946  0.811931  0.192425  1
  O  O193  1  0.311946  0.688012  0.307644  1
  O  O194  1  0.918358  0.747624  0.249499  1
  O  O195  1  0.747666  0.918356  0.249506  1
  O  O196  1  0.247665  0.581585  0.250566  1
  O  O197  1  0.418362  0.752319  0.250573  1
  O  O198  1  0.961990  0.863522  0.300352  1
  O  O199  1  0.863580  0.961938  0.300362  1
  O  O200  1  0.363580  0.538007  0.199706  1
  O  O201  1  0.461990  0.636421  0.199713  1
  O  O202  1  0.254030  0.572434  0.125522  1
  O  O203  1  0.427526  0.745961  0.125529  1
  O  O204  1  0.934802  0.934755  0.195654  1
  O  O205  1  0.434804  0.565190  0.304412  1
  O  O206  1  0.381707  0.760455  0.000042  1
  Si  Si207  1  0.440486  0.559509  0.227418  1
  O  O208  1  0.309339  0.690632  0.085666  1
  Si  Si209  1  0.128994  0.751708  0.123229  1
  Si  Si210  1  0.248231  0.870966  0.123232  1
  Si  Si211  1  0.128626  0.752185  0.275992  1
  Si  Si212  1  0.247745  0.871323  0.275995  1
  Si  Si213  1  0.747745  0.628619  0.224073  1
  Si  Si214  1  0.628626  0.747757  0.224077  1
  Si  Si215  1  0.969982  0.781306  0.075739  1
  Si  Si216  1  0.781369  0.969958  0.075739  1
  Si  Si217  1  0.864454  0.743861  0.189191  1
  Si  Si218  1  0.743886  0.864451  0.189197  1
  Si  Si219  1  0.243886  0.635492  0.310874  1
  Si  Si220  1  0.364455  0.756082  0.310879  1
  Si  Si221  1  0.965354  0.778259  0.308242  1
  Si  Si222  1  0.778322  0.965334  0.308253  1
  Si  Si223  1  0.278321  0.534610  0.191817  1
  Si  Si224  1  0.465355  0.721685  0.191827  1
  Si  Si225  1  0.242532  0.637785  0.075888  1
  Si  Si226  1  0.362177  0.757448  0.075895  1
  Si  Si227  1  0.940682  0.940628  0.118739  1
  Si  Si228  1  0.940486  0.940435  0.272648  1
  O  O229  1  0.239533  0.618262  0.000034  1
  O  O230  1  0.954538  0.769097  0.000029  1
  O  O231  1  0.769160  0.954500  0.000031  1
  O  O232  1  0.000021  0.999966  0.287787  1
  O  O233  1  0.000019  0.999972  0.104078  1
  O  O234  1  0.742177  0.550260  0.593048  1
  O  O235  1  0.550315  0.742118  0.593051  1
  O  O236  1  0.742137  0.550267  0.407014  1
  O  O237  1  0.550282  0.742135  0.407012  1
  O  O238  1  0.814740  0.673635  0.594787  1
  O  O239  1  0.673685  0.814685  0.594789  1
  O  O240  1  0.814704  0.673635  0.405284  1
  O  O241  1  0.673662  0.814696  0.405291  1
  O  O242  1  0.677364  0.677308  0.611975  1
  O  O243  1  0.677327  0.677320  0.388094  1
  O  O244  1  0.246968  0.588676  0.623775  1
  O  O245  1  0.411321  0.753039  0.623784  1
  O  O246  1  0.246942  0.588666  0.376303  1
  O  O247  1  0.411278  0.753038  0.376310  1
  O  O248  1  0.269160  0.545437  0.500038  1
  O  O249  1  0.454538  0.730842  0.500042  1
  O  O250  1  0.365461  0.534744  0.589914  1
  O  O251  1  0.465273  0.634555  0.589923  1
  O  O252  1  0.365443  0.534743  0.410152  1
  O  O253  1  0.465253  0.634558  0.410151  1
  O  O254  1  0.927528  0.753987  0.374542  1
  O  O255  1  0.754032  0.927511  0.374550  1
  O  O256  1  0.927562  0.754000  0.625507  1
  O  O257  1  0.754049  0.927507  0.625520  1
  Si  Si258  1  0.440683  0.559314  0.381328  1
  O  O259  1  0.809338  0.809311  0.414403  1
  O  O260  1  0.809359  0.809312  0.585661  1
  O  O261  1  0.881707  0.739487  0.500027  1
  O  O262  1  0.739531  0.881676  0.500036  1
  Si  Si263  1  0.748273  0.628969  0.623229  1
  Si  Si264  1  0.629023  0.748215  0.623232  1
  Si  Si265  1  0.748233  0.628978  0.376837  1
  Si  Si266  1  0.628993  0.748234  0.376840  1
  Si  Si267  1  0.281387  0.529989  0.575745  1
  Si  Si268  1  0.470007  0.718631  0.575748  1
  Si  Si269  1  0.281371  0.529983  0.424330  1
  Si  Si270  1  0.469982  0.718635  0.424331  1
  Si  Si271  1  0.862178  0.742496  0.424175  1
  Si  Si272  1  0.742532  0.862158  0.424181  1
  Si  Si273  1  0.862202  0.742501  0.575885  1
  Si  Si274  1  0.742547  0.862154  0.575890  1
  Si  Si275  1  0.440702  0.559310  0.618742  1
  O  O276  1  0.758338  0.623212  0.699554  1
  O  O277  1  0.623266  0.758280  0.699558  1
  O  O278  1  0.123265  0.741655  0.800512  1
  O  O279  1  0.258333  0.876721  0.800513  1
  O  O280  1  0.050317  0.757817  0.907022  1
  O  O281  1  0.242178  0.949676  0.907017  1
  O  O282  1  0.173687  0.685246  0.905277  1
  O  O283  1  0.314741  0.826301  0.905279  1
  O  O284  1  0.177365  0.822625  0.888095  1
  O  O285  1  0.743554  0.548317  0.803341  1
  O  O286  1  0.548376  0.743494  0.803348  1
  O  O287  1  0.048376  0.756437  0.696720  1
  O  O288  1  0.243554  0.951617  0.696724  1
  O  O289  1  0.813841  0.674557  0.804146  1
  O  O290  1  0.674618  0.813784  0.804148  1
  O  O291  1  0.174618  0.686146  0.695925  1
  O  O292  1  0.313840  0.825377  0.695925  1
  O  O293  1  0.675797  0.675739  0.785912  1
  O  O294  1  0.175795  0.824194  0.714154  1
  O  O295  1  0.911323  0.746897  0.876288  1
  O  O296  1  0.746969  0.911256  0.876297  1
  O  O297  1  0.000045  0.999968  0.712277  1
  Si  Si298  1  0.440512  0.559498  0.772652  1
  O  O299  1  0.965276  0.865383  0.910144  1
  O  O300  1  0.865462  0.965191  0.910155  1
  O  O301  1  0.311980  0.688015  0.692439  1
  O  O302  1  0.811981  0.811918  0.807632  1
  O  O303  1  0.247694  0.581590  0.749511  1
  O  O304  1  0.418395  0.752313  0.749522  1
  O  O305  1  0.918396  0.747620  0.750550  1
  O  O306  1  0.747692  0.918343  0.750562  1
  O  O307  1  0.363605  0.537994  0.800364  1
  O  O308  1  0.462017  0.636407  0.800364  1
  O  O309  1  0.962019  0.863526  0.699709  1
  O  O310  1  0.863602  0.961935  0.699702  1
  O  O311  1  0.254058  0.572426  0.874552  1
  O  O312  1  0.427564  0.745936  0.874564  1
  O  O313  1  0.434826  0.565182  0.695659  1
  O  O314  1  0.934824  0.934756  0.804410  1
  Si  Si315  1  0.940510  0.940436  0.727416  1
  O  O316  1  0.309361  0.690625  0.914410  1
  Si  Si317  1  0.940703  0.940628  0.881326  1
  Si  Si318  1  0.362203  0.757437  0.924185  1
  Si  Si319  1  0.129023  0.751717  0.876838  1
  Si  Si320  1  0.248272  0.870965  0.876838  1
  Si  Si321  1  0.747789  0.628604  0.775993  1
  Si  Si322  1  0.628660  0.747732  0.775996  1
  Si  Si323  1  0.128659  0.752200  0.724073  1
  Si  Si324  1  0.247786  0.871331  0.724074  1
  Si  Si325  1  0.970009  0.781306  0.924323  1
  Si  Si326  1  0.781388  0.969946  0.924325  1
  Si  Si327  1  0.243917  0.635499  0.689205  1
  Si  Si328  1  0.364494  0.756081  0.689211  1
  Si  Si329  1  0.864496  0.743853  0.810861  1
  Si  Si330  1  0.743917  0.864433  0.810867  1
  Si  Si331  1  0.278347  0.534605  0.808254  1
  Si  Si332  1  0.465390  0.721668  0.808262  1
  Si  Si333  1  0.965390  0.778265  0.691809  1
  Si  Si334  1  0.778343  0.965326  0.691817  1
  Si  Si335  1  0.242551  0.637781  0.924179  1
  O  O336  1  0.000042  0.999970  0.895986  1
