# generated using pymatgen
data_SiO2
_symmetry_space_group_name_H-M   'P 1'
_cell_length_a   22.01949416
_cell_length_b   15.08014935
_cell_length_c   13.75080220
_cell_angle_alpha   90.00000000
_cell_angle_beta   90.00000000
_cell_angle_gamma   90.00000000
_symmetry_Int_Tables_number   1
_chemical_formula_structural   SiO2
_chemical_formula_sum   'Si88 O176'
_cell_volume   4566.05370987
_cell_formula_units_Z   88
loop_
 _symmetry_equiv_pos_site_id
 _symmetry_equiv_pos_as_xyz
  1  'x, y, z'
loop_
 _atom_site_type_symbol
 _atom_site_label
 _atom_site_symmetry_multiplicity
 _atom_site_fract_x
 _atom_site_fract_y
 _atom_site_fract_z
 _atom_site_occupancy
  O  O1  1  0.150190  0.083995  0.754606  1
  O  O2  1  0.157310  0.411814  0.254907  1
  O  O3  1  0.149472  0.416559  0.745427  1
  O  O4  1  0.148376  0.081257  0.245343  1
  O  O5  1  0.058397  0.144393  0.842889  1
  O  O6  1  0.062494  0.359037  0.341717  1
  O  O7  1  0.057512  0.355924  0.658022  1
  O  O8  1  0.056626  0.143520  0.158055  1
  O  O9  1  0.129371  0.250030  0.749492  1
  O  O10  1  0.129726  0.248049  0.249345  1
  O  O11  1  0.163518  0.177561  0.906347  1
  O  O12  1  0.166071  0.317973  0.406704  1
  O  O13  1  0.162066  0.324424  0.592659  1
  O  O14  1  0.160939  0.173081  0.092155  1
  O  O15  1  0.247142  0.253009  0.005376  1
  O  O16  1  0.252860  0.252928  0.508600  1
  O  O17  1  0.264327  0.419352  0.999320  1
  O  O18  1  0.235432  0.419228  0.499408  1
  O  O19  1  0.262073  0.085180  0.499080  1
  O  O20  1  0.237902  0.085108  0.999456  1
  Si  Si21  1  0.003010  0.398052  0.385723  1
  Si  Si22  1  0.221763  0.000605  0.499920  1
  Si  Si23  1  0.183538  0.000718  0.714207  1
  O  O24  1  0.314002  0.499754  0.599396  1
  O  O25  1  0.332580  0.319149  0.902222  1
  O  O26  1  0.001573  0.381470  0.497867  1
  O  O27  1  0.250466  0.005212  0.749608  1
  O  O28  1  0.249694  0.005498  0.249672  1
  O  O29  1  0.249650  0.495431  0.749784  1
  Si  Si30  1  0.125094  0.164769  0.812478  1
  Si  Si31  1  0.128423  0.333521  0.312297  1
  Si  Si32  1  0.124417  0.335814  0.687496  1
  Si  Si33  1  0.123741  0.162379  0.187451  1
  Si  Si34  1  0.295862  0.327349  0.998641  1
  Si  Si35  1  0.204010  0.327157  0.501785  1
  Si  Si36  1  0.297689  0.173690  0.499763  1
  Si  Si37  1  0.202303  0.173572  0.000707  1
  Si  Si38  1  0.182777  0.499973  0.785569  1
  Si  Si39  1  0.278313  0.000631  0.999672  1
  Si  Si40  1  0.317260  0.000905  0.785732  1
  Si  Si41  1  0.316572  0.499830  0.714275  1
  O  O42  1  0.147816  0.581114  0.255527  1
  O  O43  1  0.154410  0.914441  0.755015  1
  O  O44  1  0.155202  0.911595  0.245161  1
  O  O45  1  0.153588  0.586275  0.744577  1
  O  O46  1  0.058974  0.646206  0.347588  1
  O  O47  1  0.061580  0.857623  0.844104  1
  O  O48  1  0.058823  0.861480  0.160594  1
  O  O49  1  0.056936  0.638295  0.661213  1
  O  O50  1  0.127916  0.747313  0.244836  1
  O  O51  1  0.127943  0.750755  0.744569  1
  O  O52  1  0.165935  0.678851  0.402446  1
  O  O53  1  0.166444  0.817581  0.903336  1
  O  O54  1  0.161076  0.823132  0.089309  1
  O  O55  1  0.158825  0.673843  0.588121  1
  O  O56  1  0.247533  0.753080  0.506170  1
  O  O57  1  0.252792  0.753017  0.005359  1
  O  O58  1  0.265310  0.919233  0.500411  1
  O  O59  1  0.234899  0.919129  0.998704  1
  O  O60  1  0.262296  0.585270  0.998847  1
  O  O61  1  0.237690  0.585264  0.500298  1
  Si  Si62  1  0.000270  0.602982  0.389707  1
  Si  Si63  1  0.182972  0.999043  0.285882  1
  O  O64  1  0.185930  0.998644  0.400744  1
  O  O65  1  0.002760  0.500783  0.372821  1
  O  O66  1  0.186189  0.999943  0.599348  1
  O  O67  1  0.313794  0.999151  0.099159  1
  Si  Si68  1  0.124901  0.664383  0.311652  1
  Si  Si69  1  0.127154  0.834133  0.810870  1
  Si  Si70  1  0.125338  0.835167  0.186020  1
  Si  Si71  1  0.123919  0.663033  0.685744  1
  Si  Si72  1  0.296616  0.827016  0.501275  1
  Si  Si73  1  0.203680  0.826800  0.999160  1
  Si  Si74  1  0.297828  0.673825  0.001266  1
  Si  Si75  1  0.202422  0.674112  0.499191  1
  O  O76  1  0.001575  0.882799  0.001057  1
  Si  Si77  1  0.316528  0.999195  0.214013  1
  Si  Si78  1  0.002476  0.897307  0.888520  1
  O  O79  1  0.001977  0.999690  0.872629  1
  O  O80  1  0.314277  0.999853  0.900587  1
  Si  Si81  1  0.278471  0.501104  0.499929  1
  O  O82  1  0.250396  0.508776  0.249575  1
  Si  Si83  1  0.221349  0.501303  0.999671  1
  Si  Si84  1  0.183545  0.500256  0.214189  1
  O  O85  1  0.185465  0.500265  0.900472  1
  O  O86  1  0.314246  0.500228  0.400681  1
  O  O87  1  0.185982  0.500447  0.099279  1
  Si  Si88  1  0.317069  0.500015  0.285792  1
  O  O89  1  0.351014  0.081207  0.255229  1
  O  O90  1  0.650158  0.083114  0.254446  1
  O  O91  1  0.349931  0.416674  0.754835  1
  O  O92  1  0.647425  0.419144  0.755614  1
  O  O93  1  0.651163  0.414974  0.246142  1
  O  O94  1  0.343278  0.411381  0.245259  1
  O  O95  1  0.656726  0.088117  0.745326  1
  O  O96  1  0.350464  0.084517  0.745766  1
  O  O97  1  0.440179  0.146077  0.346535  1
  O  O98  1  0.557544  0.142759  0.340997  1
  O  O99  1  0.439238  0.353167  0.846309  1
  O  O100  1  0.556714  0.354574  0.843852  1
  O  O101  1  0.558279  0.356610  0.159232  1
  O  O102  1  0.440314  0.362298  0.161765  1
  O  O103  1  0.562496  0.141272  0.657369  1
  O  O104  1  0.444524  0.141913  0.660783  1
  O  O105  1  0.371066  0.247227  0.244168  1
  O  O106  1  0.629316  0.249263  0.250066  1
  O  O107  1  0.370722  0.250782  0.744282  1
  O  O108  1  0.629772  0.252229  0.749652  1
  Si  Si109  1  0.499737  0.398469  0.114569  1
  O  O110  1  0.661633  0.175138  0.407412  1
  Si  Si111  1  0.498065  0.394747  0.889803  1
  O  O112  1  0.661908  0.325778  0.907167  1
  O  O113  1  0.662513  0.322791  0.093099  1
  O  O114  1  0.338836  0.323798  0.088369  1
  Si  Si115  1  0.502996  0.102076  0.613654  1
  O  O116  1  0.341564  0.171269  0.588299  1
  O  O117  1  0.501561  0.118123  0.501411  1
  O  O118  1  0.498757  0.381361  0.002512  1
  O  O119  1  0.497455  0.001548  0.372714  1
  Si  Si120  1  0.499141  0.103880  0.388900  1
  O  O121  1  0.497797  0.496994  0.872763  1
  Si  Si122  1  0.374172  0.164407  0.311160  1
  Si  Si123  1  0.624459  0.163529  0.312144  1
  Si  Si124  1  0.373360  0.333876  0.811030  1
  Si  Si125  1  0.623739  0.337042  0.812922  1
  Si  Si126  1  0.625060  0.335096  0.187940  1
  Si  Si127  1  0.373722  0.335444  0.185981  1
  Si  Si128  1  0.628391  0.166426  0.687269  1
  Si  Si129  1  0.376970  0.163073  0.685793  1
  O  O130  1  0.666351  0.181476  0.593177  1
  O  O131  1  0.333672  0.179428  0.402530  1
  O  O132  1  0.345764  0.586220  0.754951  1
  O  O133  1  0.656068  0.588628  0.754347  1
  O  O134  1  0.344271  0.911657  0.254410  1
  O  O135  1  0.652863  0.913434  0.255345  1
  O  O136  1  0.648347  0.918674  0.744648  1
  O  O137  1  0.346747  0.914869  0.744863  1
  O  O138  1  0.653167  0.584539  0.244614  1
  O  O139  1  0.353145  0.580717  0.244811  1
  O  O140  1  0.440809  0.640386  0.840937  1
  O  O141  1  0.558819  0.636672  0.837833  1
  O  O142  1  0.438913  0.858881  0.341641  1
  O  O143  1  0.556922  0.860496  0.339882  1
  O  O144  1  0.558943  0.854160  0.653564  1
  O  O145  1  0.441506  0.859497  0.659319  1
  O  O146  1  0.561455  0.643631  0.154155  1
  O  O147  1  0.444018  0.644333  0.156218  1
  O  O148  1  0.371698  0.750373  0.750477  1
  O  O149  1  0.627733  0.752671  0.755914  1
  O  O150  1  0.371372  0.747548  0.250309  1
  O  O151  1  0.628085  0.748712  0.255656  1
  O  O152  1  0.337357  0.678389  0.907702  1
  O  O153  1  0.660328  0.675734  0.911214  1
  O  O154  1  0.335055  0.818969  0.406676  1
  O  O155  1  0.659246  0.825932  0.411835  1
  O  O156  1  0.665615  0.820467  0.597737  1
  O  O157  1  0.338141  0.822363  0.592609  1
  O  O158  1  0.502125  0.501154  0.127201  1
  O  O159  1  0.338670  0.673644  0.093303  1
  O  O160  1  0.501357  0.616917  0.997485  1
  O  O161  1  0.498243  0.882780  0.498682  1
  Si  Si162  1  0.499701  0.599715  0.885422  1
  Si  Si163  1  0.374385  0.664502  0.812599  1
  Si  Si164  1  0.625314  0.664218  0.813722  1
  Si  Si165  1  0.372900  0.833546  0.312374  1
  Si  Si166  1  0.623894  0.836383  0.314589  1
  Si  Si167  1  0.624932  0.835518  0.688910  1
  Si  Si168  1  0.375014  0.835927  0.687910  1
  Si  Si169  1  0.627026  0.665699  0.188839  1
  Si  Si170  1  0.377088  0.662525  0.187282  1
  Si  Si171  1  0.502417  0.603397  0.110200  1
  Si  Si172  1  0.500217  0.897128  0.611224  1
  Si  Si173  1  0.497881  0.898910  0.386408  1
  O  O174  1  0.502659  0.999428  0.627396  1
  O  O175  1  0.844200  0.088028  0.755223  1
  O  O176  1  0.849793  0.415186  0.254235  1
  O  O177  1  0.851520  0.418708  0.744472  1
  O  O178  1  0.848976  0.083559  0.246250  1
  O  O179  1  0.940384  0.139066  0.839910  1
  O  O180  1  0.944453  0.358667  0.338417  1
  O  O181  1  0.940111  0.352873  0.652518  1
  O  O182  1  0.939264  0.144913  0.155506  1
  O  O183  1  0.870822  0.252440  0.755464  1
  O  O184  1  0.870920  0.249160  0.255398  1
  O  O185  1  0.838150  0.176707  0.911315  1
  O  O186  1  0.841745  0.328208  0.411542  1
  O  O187  1  0.833225  0.320569  0.597353  1
  O  O188  1  0.833300  0.180052  0.097619  1
  O  O189  1  0.751381  0.250098  0.490541  1
  O  O190  1  0.746832  0.246132  0.996996  1
  O  O191  1  0.763462  0.417377  0.500046  1
  O  O192  1  0.738137  0.414212  0.001203  1
  O  O193  1  0.764705  0.079976  0.001103  1
  O  O194  1  0.737035  0.083193  0.499677  1
  Si  Si195  1  0.817145  0.000121  0.714352  1
  O  O196  1  0.998708  0.118112  0.998984  1
  O  O197  1  0.997746  0.001314  0.127372  1
  Si  Si198  1  0.683468  0.499340  0.285897  1
  Si  Si199  1  0.778385  0.498784  0.000359  1
  Si  Si200  1  0.817233  0.499345  0.214336  1
  O  O201  1  0.749606  0.492644  0.750423  1
  O  O202  1  0.750402  0.496345  0.250439  1
  Si  Si203  1  0.873758  0.164699  0.814447  1
  Si  Si204  1  0.876928  0.336898  0.313864  1
  Si  Si205  1  0.874113  0.335196  0.688417  1
  Si  Si206  1  0.873356  0.165458  0.189590  1
  Si  Si207  1  0.797603  0.327556  0.499829  1
  Si  Si208  1  0.702290  0.325912  0.999688  1
  Si  Si209  1  0.795923  0.172208  0.001873  1
  Si  Si210  1  0.704023  0.173921  0.497761  1
  Si  Si211  1  0.998048  0.103715  0.111523  1
  Si  Si212  1  0.999125  0.395205  0.610457  1
  O  O213  1  0.997512  0.497445  0.627405  1
  O  O214  1  0.814342  0.000127  0.599453  1
  O  O215  1  0.749661  0.002391  0.250426  1
  Si  Si216  1  0.999757  0.102248  0.886701  1
  O  O217  1  0.813820  0.499980  0.900846  1
  Si  Si218  1  0.683570  0.000013  0.785896  1
  O  O219  1  0.847413  0.584881  0.255129  1
  O  O220  1  0.852378  0.918556  0.755012  1
  O  O221  1  0.846854  0.914016  0.244222  1
  O  O222  1  0.843463  0.588159  0.745621  1
  O  O223  1  0.941624  0.640788  0.341608  1
  O  O224  1  0.944110  0.856462  0.842344  1
  O  O225  1  0.940771  0.857517  0.156968  1
  O  O226  1  0.938884  0.639862  0.659641  1
  O  O227  1  0.871674  0.749734  0.250574  1
  O  O228  1  0.871443  0.751922  0.750209  1
  O  O229  1  0.838028  0.676774  0.407727  1
  O  O230  1  0.839399  0.826204  0.907378  1
  O  O231  1  0.836463  0.820212  0.092937  1
  O  O232  1  0.835537  0.681047  0.593383  1
  O  O233  1  0.752598  0.746407  0.992963  1
  O  O234  1  0.749120  0.750174  0.494140  1
  O  O235  1  0.762322  0.914075  0.000701  1
  O  O236  1  0.736107  0.917287  0.501147  1
  O  O237  1  0.763721  0.583330  0.500725  1
  O  O238  1  0.734865  0.580213  0.000834  1
  O  O239  1  0.814336  0.500229  0.099480  1
  O  O240  1  0.686140  0.999673  0.900784  1
  O  O241  1  0.667094  0.682005  0.097088  1
  Si  Si242  1  0.778528  0.999745  0.500223  1
  Si  Si243  1  0.999720  0.898752  0.113317  1
  O  O244  1  0.685656  0.998987  0.099529  1
  Si  Si245  1  0.997859  0.600169  0.614507  1
  O  O246  1  0.998179  0.616863  0.502328  1
  O  O247  1  0.750410  0.992542  0.750390  1
  Si  Si248  1  0.875134  0.663897  0.312628  1
  Si  Si249  1  0.877071  0.837327  0.812614  1
  Si  Si250  1  0.874419  0.834714  0.187014  1
  Si  Si251  1  0.872868  0.665961  0.688100  1
  Si  Si252  1  0.797753  0.825419  0.998512  1
  Si  Si253  1  0.702396  0.827079  0.501320  1
  Si  Si254  1  0.796651  0.674185  0.499211  1
  Si  Si255  1  0.703602  0.672499  0.000611  1
  O  O256  1  0.686119  0.500551  0.400752  1
  Si  Si257  1  0.721545  0.998214  0.000347  1
  Si  Si258  1  0.721653  0.500442  0.500205  1
  O  O259  1  0.814036  0.998497  0.400729  1
  O  O260  1  0.685778  0.500079  0.599360  1
  Si  Si261  1  0.682842  0.999163  0.214405  1
  Si  Si262  1  0.816621  0.999207  0.285865  1
  Si  Si263  1  0.682894  0.500249  0.714243  1
  Si  Si264  1  0.816447  0.500105  0.785966  1
