# generated using pymatgen
data_SiO2
_symmetry_space_group_name_H-M   'P 1'
_cell_length_a   25.36503145
_cell_length_b   13.87769178
_cell_length_c   22.20146862
_cell_angle_alpha   90.00000000
_cell_angle_beta   90.00000000
_cell_angle_gamma   90.00000000
_symmetry_Int_Tables_number   1
_chemical_formula_structural   SiO2
_chemical_formula_sum   'Si136 O272'
_cell_volume   7815.09652732
_cell_formula_units_Z   136
loop_
 _symmetry_equiv_pos_site_id
 _symmetry_equiv_pos_as_xyz
  1  'x, y, z'
loop_
 _atom_site_type_symbol
 _atom_site_label
 _atom_site_symmetry_multiplicity
 _atom_site_fract_x
 _atom_site_fract_y
 _atom_site_fract_z
 _atom_site_occupancy
  O  O1  1  0.149841  0.259891  0.359560  1
  O  O2  1  0.149735  0.740196  0.359514  1
  O  O3  1  0.149737  0.239782  0.140647  1
  O  O4  1  0.149825  0.759352  0.140587  1
  O  O5  1  0.319412  0.750103  0.250059  1
  O  O6  1  0.180506  0.250034  0.250092  1
  O  O7  1  0.319452  0.249987  0.250102  1
  O  O8  1  0.180534  0.749916  0.250066  1
  O  O9  1  0.249959  0.750130  0.330466  1
  O  O10  1  0.250040  0.249990  0.330505  1
  O  O11  1  0.249952  0.250450  0.169698  1
  O  O12  1  0.250033  0.750166  0.169671  1
  O  O13  1  0.309260  0.600231  0.315046  1
  O  O14  1  0.190124  0.100239  0.315170  1
  O  O15  1  0.309947  0.399834  0.315291  1
  O  O16  1  0.189964  0.899852  0.315192  1
  O  O17  1  0.190322  0.399765  0.184813  1
  O  O18  1  0.309146  0.899986  0.184971  1
  O  O19  1  0.191138  0.600142  0.184954  1
  O  O20  1  0.308770  0.100296  0.184968  1
  O  O21  1  0.095160  0.408946  0.342268  1
  O  O22  1  0.094686  0.591637  0.341904  1
  O  O23  1  0.094766  0.090834  0.157753  1
  O  O24  1  0.094669  0.907882  0.158334  1
  O  O25  1  0.084712  0.336884  0.442979  1
  O  O26  1  0.085106  0.662193  0.443048  1
  O  O27  1  0.084593  0.163152  0.057114  1
  O  O28  1  0.085435  0.838047  0.056942  1
  O  O29  1  0.050380  0.250067  0.348484  1
  O  O30  1  0.050008  0.750454  0.349674  1
  O  O31  1  0.050328  0.250104  0.151644  1
  O  O32  1  0.050074  0.748927  0.149697  1
  O  O33  1  0.150776  0.500405  0.266837  1
  O  O34  1  0.151708  0.000028  0.232110  1
  O  O35  1  0.250522  0.999669  0.251607  1
  O  O36  1  0.249345  0.498429  0.251207  1
  O  O37  1  0.049940  0.499540  0.259448  1
  O  O38  1  0.050671  0.000127  0.241294  1
  Si  Si39  1  0.000116  0.712495  0.183364  1
  O  O40  1  0.071622  0.499500  0.499939  1
  O  O41  1  0.000095  0.599140  0.185466  1
  O  O42  1  0.000135  0.099085  0.314826  1
  O  O43  1  0.071567  0.000522  0.000125  1
  O  O44  1  0.001098  0.751145  0.249545  1
  Si  Si45  1  0.307484  0.714535  0.316080  1
  Si  Si46  1  0.192443  0.214593  0.316144  1
  Si  Si47  1  0.307635  0.285439  0.316186  1
  Si  Si48  1  0.192343  0.785491  0.316130  1
  Si  Si49  1  0.192299  0.285404  0.183989  1
  Si  Si50  1  0.307578  0.785638  0.184006  1
  Si  Si51  1  0.192534  0.714467  0.184024  1
  Si  Si52  1  0.307434  0.214640  0.184045  1
  Si  Si53  1  0.096233  0.310744  0.375711  1
  Si  Si54  1  0.096180  0.689370  0.375866  1
  Si  Si55  1  0.096086  0.189137  0.124419  1
  Si  Si56  1  0.096363  0.810397  0.124083  1
  Si  Si57  1  0.304496  0.000127  0.218405  1
  Si  Si58  1  0.195251  0.499880  0.218272  1
  Si  Si59  1  0.195234  0.000029  0.281884  1
  Si  Si60  1  0.304465  0.499908  0.281857  1
  Si  Si61  1  0.098099  0.500123  0.302400  1
  Si  Si62  1  0.098378  0.999672  0.197608  1
  Si  Si63  1  0.000050  0.999977  0.280830  1
  Si  Si64  1  0.061436  0.888553  0.000047  1
  Si  Si65  1  0.000059  0.787366  0.316260  1
  O  O66  1  0.000228  0.875374  0.000005  1
  Si  Si67  1  0.061095  0.112383  0.000007  1
  O  O68  1  0.149893  0.759406  0.859501  1
  O  O69  1  0.149789  0.240032  0.859345  1
  O  O70  1  0.149844  0.740209  0.640598  1
  O  O71  1  0.149918  0.259800  0.640497  1
  O  O72  1  0.319560  0.250091  0.750040  1
  O  O73  1  0.180611  0.749988  0.750059  1
  O  O74  1  0.319603  0.750136  0.750063  1
  O  O75  1  0.180584  0.250118  0.749942  1
  O  O76  1  0.250004  0.250240  0.830338  1
  O  O77  1  0.250140  0.750411  0.830411  1
  O  O78  1  0.250059  0.750106  0.669712  1
  O  O79  1  0.250144  0.250307  0.669628  1
  O  O80  1  0.308978  0.100245  0.814960  1
  O  O81  1  0.191359  0.600245  0.815134  1
  O  O82  1  0.309426  0.900013  0.815067  1
  O  O83  1  0.190624  0.399879  0.815148  1
  O  O84  1  0.190039  0.899876  0.684899  1
  O  O85  1  0.310279  0.399940  0.684890  1
  O  O86  1  0.190387  0.100295  0.684922  1
  O  O87  1  0.309579  0.600411  0.684976  1
  O  O88  1  0.094773  0.908060  0.841761  1
  O  O89  1  0.094765  0.091049  0.842162  1
  O  O90  1  0.094507  0.592057  0.658442  1
  O  O91  1  0.095510  0.409232  0.657676  1
  O  O92  1  0.085529  0.838237  0.943139  1
  O  O93  1  0.084909  0.162879  0.942971  1
  O  O94  1  0.085472  0.661785  0.556941  1
  O  O95  1  0.084765  0.336986  0.557113  1
  O  O96  1  0.050101  0.749191  0.850460  1
  O  O97  1  0.050301  0.250176  0.848794  1
  O  O98  1  0.049988  0.750979  0.649636  1
  O  O99  1  0.050443  0.250458  0.651659  1
  O  O100  1  0.151702  0.000171  0.767874  1
  O  O101  1  0.151267  0.500678  0.733009  1
  O  O102  1  0.249737  0.498791  0.748881  1
  O  O103  1  0.250533  0.999325  0.748629  1
  O  O104  1  0.050662  0.999980  0.758769  1
  O  O105  1  0.050646  0.498965  0.741101  1
  O  O106  1  0.000209  0.624497  0.500201  1
  Si  Si107  1  0.000193  0.787458  0.683598  1
  O  O108  1  0.000271  0.099178  0.685209  1
  O  O109  1  0.001875  0.750298  0.750096  1
  Si  Si110  1  0.307524  0.214571  0.816041  1
  Si  Si111  1  0.192654  0.714587  0.816095  1
  Si  Si112  1  0.307736  0.785666  0.816108  1
  Si  Si113  1  0.192413  0.285511  0.816023  1
  Si  Si114  1  0.192440  0.785502  0.683995  1
  Si  Si115  1  0.307778  0.285549  0.683967  1
  Si  Si116  1  0.192579  0.214656  0.683916  1
  Si  Si117  1  0.307641  0.714734  0.684017  1
  Si  Si118  1  0.096456  0.810563  0.876001  1
  Si  Si119  1  0.096215  0.189197  0.875669  1
  Si  Si120  1  0.096301  0.689467  0.624098  1
  Si  Si121  1  0.096363  0.310893  0.624375  1
  Si  Si122  1  0.304856  0.500109  0.718238  1
  Si  Si123  1  0.195314  0.000065  0.718211  1
  Si  Si124  1  0.195613  0.500037  0.781741  1
  Si  Si125  1  0.304640  0.000075  0.781536  1
  Si  Si126  1  0.098395  0.999778  0.802409  1
  Si  Si127  1  0.098471  0.500279  0.697671  1
  Si  Si128  1  0.061407  0.611456  0.500023  1
  Si  Si129  1  0.061127  0.387634  0.500040  1
  Si  Si130  1  0.000176  0.499954  0.780804  1
  Si  Si131  1  0.000055  0.000043  0.719221  1
  Si  Si132  1  0.000359  0.712552  0.816472  1
  O  O133  1  0.000365  0.599139  0.814691  1
  Si  Si134  1  0.000013  0.212643  0.683635  1
  O  O135  1  0.350260  0.759512  0.359415  1
  O  O136  1  0.649861  0.759292  0.359597  1
  O  O137  1  0.350293  0.240139  0.359495  1
  O  O138  1  0.649826  0.240393  0.359426  1
  O  O139  1  0.649857  0.740442  0.140617  1
  O  O140  1  0.350323  0.740419  0.140730  1
  O  O141  1  0.649838  0.259594  0.140586  1
  O  O142  1  0.350229  0.259386  0.140668  1
  O  O143  1  0.594804  0.907951  0.341828  1
  O  O144  1  0.404790  0.908855  0.342030  1
  O  O145  1  0.595353  0.090884  0.342248  1
  O  O146  1  0.405508  0.091724  0.341746  1
  O  O147  1  0.404911  0.590913  0.157887  1
  O  O148  1  0.594761  0.591823  0.158327  1
  O  O149  1  0.405428  0.407835  0.158563  1
  O  O150  1  0.595248  0.408920  0.157896  1
  O  O151  1  0.585590  0.838170  0.443367  1
  O  O152  1  0.415358  0.836905  0.442676  1
  O  O153  1  0.584784  0.162872  0.442850  1
  O  O154  1  0.414791  0.162155  0.443083  1
  O  O155  1  0.415414  0.663144  0.057401  1
  O  O156  1  0.585589  0.661645  0.056847  1
  O  O157  1  0.414599  0.338045  0.057065  1
  O  O158  1  0.584954  0.337393  0.057097  1
  O  O159  1  0.550065  0.749211  0.350720  1
  O  O160  1  0.449764  0.750070  0.348286  1
  O  O161  1  0.550399  0.249721  0.348393  1
  O  O162  1  0.450109  0.250679  0.350113  1
  O  O163  1  0.449785  0.749841  0.151911  1
  O  O164  1  0.550072  0.750621  0.149509  1
  O  O165  1  0.450064  0.248924  0.149641  1
  O  O166  1  0.550371  0.250086  0.151249  1
  O  O167  1  0.349051  0.000501  0.266868  1
  O  O168  1  0.651048  0.999632  0.266889  1
  O  O169  1  0.650612  0.500174  0.233492  1
  O  O170  1  0.348080  0.500008  0.232201  1
  O  O171  1  0.550481  0.000493  0.259107  1
  O  O172  1  0.449653  0.999397  0.258882  1
  O  O173  1  0.448912  0.500631  0.241682  1
  O  O174  1  0.549915  0.499416  0.240695  1
  O  O175  1  0.500152  0.624569  0.000182  1
  O  O176  1  0.499892  0.375413  0.000202  1
  Si  Si177  1  0.499729  0.500031  0.280865  1
  O  O178  1  0.428494  0.500362  0.000384  1
  O  O179  1  0.500312  0.900778  0.185268  1
  O  O180  1  0.500123  0.099141  0.185273  1
  O  O181  1  0.500227  0.599180  0.314834  1
  O  O182  1  0.499996  0.400832  0.314809  1
  O  O183  1  0.502207  0.750057  0.250113  1
  O  O184  1  0.498462  0.250330  0.249822  1
  Si  Si185  1  0.596470  0.810544  0.376184  1
  Si  Si186  1  0.403828  0.810623  0.375444  1
  Si  Si187  1  0.596316  0.189167  0.375595  1
  Si  Si188  1  0.403841  0.189339  0.375877  1
  Si  Si189  1  0.403881  0.689308  0.124653  1
  Si  Si190  1  0.596453  0.689259  0.124023  1
  Si  Si191  1  0.403704  0.310415  0.124209  1
  Si  Si192  1  0.596351  0.310829  0.124340  1
  Si  Si193  1  0.598374  0.999634  0.302435  1
  Si  Si194  1  0.401800  0.000161  0.302270  1
  Si  Si195  1  0.401404  0.499729  0.197727  1
  Si  Si196  1  0.598060  0.500152  0.197742  1
  Si  Si197  1  0.500137  0.999970  0.219201  1
  Si  Si198  1  0.438904  0.612223  0.000357  1
  Si  Si199  1  0.499953  0.287358  0.316350  1
  Si  Si200  1  0.500423  0.787322  0.183643  1
  Si  Si201  1  0.499966  0.212565  0.183455  1
  Si  Si202  1  0.500408  0.712625  0.316547  1
  O  O203  1  0.428495  0.999635  0.499638  1
  O  O204  1  0.500119  0.875421  0.499936  1
  Si  Si205  1  0.438866  0.887773  0.499726  1
  Si  Si206  1  0.438674  0.388429  0.000178  1
  Si  Si207  1  0.438699  0.111547  0.499987  1
  Si  Si208  1  0.561152  0.112272  0.499956  1
  Si  Si209  1  0.561147  0.387772  0.000013  1
  O  O210  1  0.350213  0.259428  0.859532  1
  O  O211  1  0.649723  0.259405  0.859465  1
  O  O212  1  0.350345  0.740456  0.859549  1
  O  O213  1  0.649831  0.740742  0.859565  1
  O  O214  1  0.649816  0.240070  0.640460  1
  O  O215  1  0.350329  0.239832  0.640685  1
  O  O216  1  0.649710  0.760089  0.640685  1
  O  O217  1  0.350224  0.759978  0.640565  1
  O  O218  1  0.594909  0.408373  0.842082  1
  O  O219  1  0.404938  0.408602  0.842192  1
  O  O220  1  0.595607  0.591031  0.842361  1
  O  O221  1  0.405481  0.591684  0.842173  1
  O  O222  1  0.405863  0.091723  0.658484  1
  O  O223  1  0.595080  0.091056  0.657789  1
  O  O224  1  0.405373  0.908590  0.657971  1
  O  O225  1  0.594469  0.908382  0.658498  1
  O  O226  1  0.584711  0.336829  0.942993  1
  O  O227  1  0.414646  0.338055  0.943245  1
  O  O228  1  0.584837  0.662826  0.942918  1
  O  O229  1  0.414802  0.662449  0.943402  1
  O  O230  1  0.414697  0.161621  0.557024  1
  O  O231  1  0.584756  0.163044  0.557006  1
  O  O232  1  0.414731  0.837737  0.556726  1
  O  O233  1  0.584779  0.837686  0.557370  1
  O  O234  1  0.550230  0.249726  0.848671  1
  O  O235  1  0.449945  0.249787  0.850231  1
  O  O236  1  0.550356  0.749373  0.848391  1
  O  O237  1  0.450084  0.750740  0.850361  1
  O  O238  1  0.450102  0.251141  0.649680  1
  O  O239  1  0.550351  0.249989  0.651442  1
  O  O240  1  0.449913  0.749197  0.649685  1
  O  O241  1  0.550175  0.749372  0.651316  1
  O  O242  1  0.348495  0.500600  0.767859  1
  O  O243  1  0.651870  0.499509  0.767757  1
  O  O244  1  0.650941  0.999819  0.733147  1
  O  O245  1  0.349003  0.000254  0.732805  1
  O  O246  1  0.550767  0.500705  0.759182  1
  O  O247  1  0.449509  0.499492  0.759195  1
  O  O248  1  0.449500  0.999193  0.741554  1
  O  O249  1  0.550335  0.000976  0.741266  1
  O  O250  1  0.571558  0.000370  0.500222  1
  Si  Si251  1  0.561364  0.611642  0.999887  1
  O  O252  1  0.571574  0.499672  0.999652  1
  Si  Si253  1  0.499997  0.999925  0.781210  1
  O  O254  1  0.500373  0.400834  0.685705  1
  O  O255  1  0.499796  0.598941  0.685559  1
  O  O256  1  0.499715  0.099113  0.815161  1
  O  O257  1  0.500429  0.900639  0.815017  1
  O  O258  1  0.498391  0.249405  0.749973  1
  O  O259  1  0.498239  0.750251  0.749917  1
  Si  Si260  1  0.596165  0.310378  0.875746  1
  Si  Si261  1  0.403586  0.310779  0.876069  1
  Si  Si262  1  0.596381  0.689289  0.875712  1
  Si  Si263  1  0.403800  0.689445  0.876153  1
  Si  Si264  1  0.403908  0.189206  0.624209  1
  Si  Si265  1  0.596208  0.189223  0.624291  1
  Si  Si266  1  0.403722  0.810817  0.623982  1
  Si  Si267  1  0.596020  0.810659  0.624550  1
  Si  Si268  1  0.598700  0.499824  0.802547  1
  Si  Si269  1  0.401663  0.500151  0.802650  1
  Si  Si270  1  0.401949  0.999919  0.697736  1
  Si  Si271  1  0.598154  0.000056  0.697816  1
  Si  Si272  1  0.500122  0.499939  0.719696  1
  Si  Si273  1  0.499914  0.787184  0.816462  1
  Si  Si274  1  0.561333  0.888408  0.500242  1
  Si  Si275  1  0.499707  0.212598  0.816559  1
  Si  Si276  1  0.499666  0.712363  0.683571  1
  Si  Si277  1  0.499948  0.287441  0.683668  1
  O  O278  1  0.499905  0.124542  0.500008  1
  O  O279  1  0.850253  0.259751  0.359510  1
  O  O280  1  0.850264  0.740021  0.359536  1
  O  O281  1  0.850273  0.239979  0.140559  1
  O  O282  1  0.850241  0.760224  0.140591  1
  O  O283  1  0.819599  0.250001  0.249998  1
  O  O284  1  0.680599  0.749954  0.250093  1
  O  O285  1  0.819608  0.749963  0.250075  1
  O  O286  1  0.680623  0.249961  0.250001  1
  O  O287  1  0.750077  0.249706  0.330366  1
  O  O288  1  0.750077  0.750238  0.330434  1
  O  O289  1  0.750082  0.749485  0.169745  1
  O  O290  1  0.750079  0.250037  0.169635  1
  O  O291  1  0.810077  0.100089  0.315043  1
  O  O292  1  0.691144  0.600122  0.315166  1
  O  O293  1  0.810085  0.899826  0.315080  1
  O  O294  1  0.691102  0.399752  0.315085  1
  O  O295  1  0.691148  0.899690  0.184934  1
  O  O296  1  0.809977  0.399809  0.184841  1
  O  O297  1  0.691016  0.100119  0.184956  1
  O  O298  1  0.810034  0.600234  0.184926  1
  O  O299  1  0.905625  0.407891  0.341704  1
  O  O300  1  0.904951  0.590798  0.342476  1
  O  O301  1  0.905651  0.091704  0.158185  1
  O  O302  1  0.905515  0.908733  0.157862  1
  O  O303  1  0.914619  0.338258  0.443201  1
  O  O304  1  0.915344  0.663143  0.443060  1
  O  O305  1  0.914688  0.161772  0.056853  1
  O  O306  1  0.915073  0.837248  0.056857  1
  O  O307  1  0.950099  0.248909  0.350558  1
  O  O308  1  0.949737  0.749752  0.348541  1
  O  O309  1  0.950071  0.250869  0.149631  1
  O  O310  1  0.949781  0.749396  0.150693  1
  O  O311  1  0.847893  0.499697  0.268216  1
  O  O312  1  0.848343  0.999987  0.231897  1
  O  O313  1  0.749192  0.500006  0.248156  1
  O  O314  1  0.749522  0.999969  0.251492  1
  O  O315  1  0.948813  0.500713  0.258556  1
  O  O316  1  0.949359  0.999861  0.241415  1
  Si  Si317  1  0.999878  0.212512  0.316523  1
  Si  Si318  1  0.999802  0.287483  0.183662  1
  O  O319  1  0.998195  0.249917  0.250075  1
  Si  Si320  1  0.807708  0.214445  0.316043  1
  Si  Si321  1  0.692577  0.714481  0.316128  1
  Si  Si322  1  0.807710  0.785476  0.316121  1
  Si  Si323  1  0.692569  0.285399  0.316038  1
  Si  Si324  1  0.692585  0.785323  0.184039  1
  Si  Si325  1  0.807696  0.285426  0.183929  1
  Si  Si326  1  0.692547  0.214474  0.183971  1
  Si  Si327  1  0.807756  0.714554  0.184000  1
  Si  Si328  1  0.903792  0.310487  0.376059  1
  Si  Si329  1  0.903850  0.689155  0.375765  1
  Si  Si330  1  0.903820  0.189274  0.124026  1
  Si  Si331  1  0.903863  0.810760  0.124145  1
  Si  Si332  1  0.804593  0.499979  0.218153  1
  Si  Si333  1  0.695530  0.999903  0.218338  1
  Si  Si334  1  0.695372  0.499967  0.281679  1
  Si  Si335  1  0.804834  0.999944  0.281703  1
  Si  Si336  1  0.901324  0.499724  0.302547  1
  Si  Si337  1  0.901769  0.000056  0.197568  1
  Si  Si338  1  0.999657  0.500048  0.219420  1
  O  O339  1  0.999863  0.400910  0.185451  1
  O  O340  1  0.999992  0.900863  0.314890  1
  O  O341  1  0.850338  0.759771  0.859309  1
  O  O342  1  0.850195  0.240557  0.859364  1
  O  O343  1  0.850187  0.740047  0.640558  1
  O  O344  1  0.850286  0.259702  0.640529  1
  O  O345  1  0.819453  0.749894  0.749950  1
  O  O346  1  0.680519  0.249935  0.749918  1
  O  O347  1  0.819445  0.250047  0.749934  1
  O  O348  1  0.680557  0.749984  0.750065  1
  O  O349  1  0.750077  0.749933  0.830409  1
  O  O350  1  0.749957  0.249916  0.830321  1
  O  O351  1  0.750028  0.249799  0.669511  1
  O  O352  1  0.749943  0.749950  0.669591  1
  O  O353  1  0.809176  0.600138  0.815079  1
  O  O354  1  0.690905  0.100125  0.815043  1
  O  O355  1  0.808885  0.399847  0.815049  1
  O  O356  1  0.691108  0.899879  0.815086  1
  O  O357  1  0.690268  0.399719  0.684708  1
  O  O358  1  0.809876  0.899727  0.684859  1
  O  O359  1  0.689973  0.600209  0.684804  1
  O  O360  1  0.809983  0.100118  0.684828  1
  O  O361  1  0.905296  0.908838  0.842003  1
  O  O362  1  0.905347  0.091885  0.841710  1
  O  O363  1  0.904821  0.590825  0.657737  1
  O  O364  1  0.905507  0.407981  0.658440  1
  O  O365  1  0.915346  0.836973  0.942771  1
  O  O366  1  0.914519  0.161911  0.943041  1
  O  O367  1  0.915337  0.663191  0.557177  1
  O  O368  1  0.914763  0.338131  0.557030  1
  O  O369  1  0.949807  0.749722  0.848544  1
  O  O370  1  0.949994  0.250837  0.850349  1
  O  O371  1  0.949676  0.749773  0.651728  1
  O  O372  1  0.950134  0.249109  0.649836  1
  O  O373  1  0.848317  0.999967  0.767867  1
  O  O374  1  0.849173  0.499675  0.733213  1
  O  O375  1  0.749481  0.000205  0.748435  1
  O  O376  1  0.750648  0.500404  0.748305  1
  O  O377  1  0.949360  0.000064  0.758625  1
  O  O378  1  0.949799  0.500801  0.740952  1
  O  O379  1  0.999840  0.124592  0.999788  1
  O  O380  1  0.928504  0.999491  0.999801  1
  O  O381  1  0.928453  0.500605  0.500145  1
  O  O382  1  0.999866  0.375567  0.500048  1
  Si  Si383  1  0.901855  0.499750  0.697704  1
  Si  Si384  1  0.901666  0.000199  0.802327  1
  O  O385  1  0.998446  0.249613  0.750174  1
  Si  Si386  1  0.807618  0.714490  0.816028  1
  Si  Si387  1  0.692409  0.214465  0.815988  1
  Si  Si388  1  0.807475  0.285508  0.815977  1
  Si  Si389  1  0.692557  0.785547  0.816087  1
  Si  Si390  1  0.692451  0.285338  0.683844  1
  Si  Si391  1  0.807543  0.785372  0.683904  1
  Si  Si392  1  0.692343  0.714583  0.683965  1
  Si  Si393  1  0.807634  0.214473  0.683877  1
  Si  Si394  1  0.903925  0.810677  0.875503  1
  Si  Si395  1  0.903636  0.189458  0.875877  1
  Si  Si396  1  0.903804  0.689187  0.624459  1
  Si  Si397  1  0.903841  0.310510  0.624164  1
  Si  Si398  1  0.804760  0.999943  0.718134  1
  Si  Si399  1  0.695377  0.499940  0.717987  1
  Si  Si400  1  0.695496  0.999991  0.781615  1
  Si  Si401  1  0.804574  0.500011  0.781616  1
  Si  Si402  1  0.938966  0.887643  0.999838  1
  Si  Si403  1  0.999846  0.287399  0.816541  1
  Si  Si404  1  0.938662  0.388657  0.500104  1
  Si  Si405  1  0.938638  0.111441  0.999881  1
  Si  Si406  1  0.938953  0.612460  0.500132  1
  O  O407  1  0.999879  0.400812  0.814744  1
  O  O408  1  0.999944  0.900912  0.685215  1
