# generated using pymatgen
data_SiO2
_symmetry_space_group_name_H-M   'P 1'
_cell_length_a   13.92096345
_cell_length_b   5.05139295
_cell_length_c   8.64912663
_cell_angle_alpha   90.00000000
_cell_angle_beta   105.36800000
_cell_angle_gamma   90.00000000
_symmetry_Int_Tables_number   1
_chemical_formula_structural   SiO2
_chemical_formula_sum   'Si12 O24'
_cell_volume   586.461428048
_cell_formula_units_Z   12
loop_
 _symmetry_equiv_pos_site_id
 _symmetry_equiv_pos_as_xyz
  1  'x, y, z'
loop_
 _atom_site_type_symbol
 _atom_site_label
 _atom_site_symmetry_multiplicity
 _atom_site_fract_x
 _atom_site_fract_y
 _atom_site_fract_z
 _atom_site_occupancy
  O  O1  1  0.671044  0.991793  0.185250  1
  O  O2  1  0.170729  0.497156  0.184628  1
  O  O3  1  0.331268  0.991633  0.815473  1
  O  O4  1  0.830955  0.497432  0.814757  1
  O  O5  1  0.525713  0.259883  0.240173  1
  O  O6  1  0.026349  0.731927  0.273931  1
  O  O7  1  0.476211  0.259974  0.759927  1
  O  O8  1  0.975172  0.732453  0.724442  1
  O  O9  1  0.475069  0.755078  0.725133  1
  O  O10  1  0.975651  0.227537  0.758572  1
  O  O11  1  0.526820  0.754963  0.274966  1
  O  O12  1  0.025909  0.227026  0.239407  1
  O  O13  1  0.490752  0.956161  0.000164  1
  O  O14  1  0.001020  0.530301  0.999017  1
  O  O15  1  0.001313  0.031772  0.499487  1
  O  O16  1  0.500817  0.455936  0.499976  1
  O  O17  1  0.137057  0.992030  0.766572  1
  O  O18  1  0.636996  0.496389  0.766469  1
  O  O19  1  0.864894  0.991977  0.232969  1
  O  O20  1  0.364821  0.496181  0.233239  1
  O  O21  1  0.249922  0.279780  0.984556  1
  O  O22  1  0.749777  0.780426  0.984389  1
  O  O23  1  0.751873  0.280178  0.015239  1
  O  O24  1  0.251928  0.780177  0.015268  1
  Si  Si25  1  0.557040  0.990649  0.180474  1
  Si  Si26  1  0.056703  0.496534  0.179383  1
  Si  Si27  1  0.445173  0.990748  0.820023  1
  Si  Si28  1  0.944809  0.496815  0.818873  1
  Si  Si29  1  0.022484  0.995826  0.684628  1
  Si  Si30  1  0.522390  0.491881  0.685149  1
  Si  Si31  1  0.979524  0.995588  0.314284  1
  Si  Si32  1  0.479403  0.491769  0.314801  1
  Si  Si33  1  0.240868  0.011316  0.892526  1
  Si  Si34  1  0.740775  0.512129  0.892611  1
  Si  Si35  1  0.761062  0.011565  0.107208  1
  Si  Si36  1  0.261048  0.511865  0.107068  1
