# generated using pymatgen
data_SiO2
_symmetry_space_group_name_H-M   'P 1'
_cell_length_a   8.40674526
_cell_length_b   8.41110944
_cell_length_c   5.17017354
_cell_angle_alpha   90.00000000
_cell_angle_beta   90.00000000
_cell_angle_gamma   120.00000000
_symmetry_Int_Tables_number   1
_chemical_formula_structural   SiO2
_chemical_formula_sum   'Si6 O12'
_cell_volume   316.604383861
_cell_formula_units_Z   6
loop_
 _symmetry_equiv_pos_site_id
 _symmetry_equiv_pos_as_xyz
  1  'x, y, z'
loop_
 _atom_site_type_symbol
 _atom_site_label
 _atom_site_symmetry_multiplicity
 _atom_site_fract_x
 _atom_site_fract_y
 _atom_site_fract_z
 _atom_site_occupancy
  O  O1  1  0.192557  0.705154  0.745801  1
  O  O2  1  0.294526  0.486441  0.747885  1
  O  O3  1  0.513316  0.807039  0.754771  1
  O  O4  1  0.705690  0.192013  0.243919  1
  O  O5  1  0.486774  0.293768  0.253110  1
  O  O6  1  0.807570  0.512569  0.251256  1
  O  O7  1  0.997687  0.406704  0.500881  1
  O  O8  1  0.590580  0.592113  0.498550  1
  O  O9  1  0.412313  0.999181  0.498892  1
  O  O10  1  0.002588  0.411817  0.000897  1
  O  O11  1  0.590258  0.587392  0.998554  1
  O  O12  1  0.407274  0.999734  0.998871  1
  Si  Si13  1  0.113220  0.493656  0.748385  1
  Si  Si14  1  0.506134  0.618667  0.750264  1
  Si  Si15  1  0.381080  0.886397  0.749728  1
  Si  Si16  1  0.494052  0.112613  0.248543  1
  Si  Si17  1  0.619007  0.505279  0.250826  1
  Si  Si18  1  0.886932  0.380412  0.248959  1
