# generated using pymatgen
data_SiO2
_symmetry_space_group_name_H-M   'P 1'
_cell_length_a   13.76421617
_cell_length_b   13.76258817
_cell_length_c   6.32590885
_cell_angle_alpha   90.00000000
_cell_angle_beta   90.00000000
_cell_angle_gamma   90.00000000
_symmetry_Int_Tables_number   1
_chemical_formula_structural   SiO2
_chemical_formula_sum   'Si20 O40'
_cell_volume   1198.32474931
_cell_formula_units_Z   20
loop_
 _symmetry_equiv_pos_site_id
 _symmetry_equiv_pos_as_xyz
  1  'x, y, z'
loop_
 _atom_site_type_symbol
 _atom_site_label
 _atom_site_symmetry_multiplicity
 _atom_site_fract_x
 _atom_site_fract_y
 _atom_site_fract_z
 _atom_site_occupancy
  O  O1  1  0.021395  0.999931  0.999907  1
  O  O2  1  0.521413  0.499936  0.499903  1
  O  O3  1  0.750036  0.228578  0.749983  1
  O  O4  1  0.250038  0.728587  0.249940  1
  O  O5  1  0.478646  0.999924  0.500054  1
  O  O6  1  0.978669  0.499929  0.000031  1
  O  O7  1  0.750033  0.771292  0.249933  1
  O  O8  1  0.250036  0.271292  0.749994  1
  O  O9  1  0.098342  0.166854  0.875361  1
  O  O10  1  0.598350  0.666838  0.375344  1
  O  O11  1  0.598351  0.333015  0.624599  1
  O  O12  1  0.098351  0.833006  0.124587  1
  O  O13  1  0.401722  0.833003  0.375348  1
  O  O14  1  0.901732  0.332995  0.875352  1
  O  O15  1  0.901721  0.666841  0.124582  1
  O  O16  1  0.401723  0.166836  0.624587  1
  O  O17  1  0.916933  0.151615  0.874635  1
  O  O18  1  0.416926  0.651624  0.374675  1
  O  O19  1  0.416949  0.348216  0.625301  1
  O  O20  1  0.916945  0.848229  0.125330  1
  O  O21  1  0.583135  0.848218  0.374640  1
  O  O22  1  0.083132  0.348232  0.874622  1
  O  O23  1  0.083136  0.651618  0.125293  1
  O  O24  1  0.583135  0.151629  0.625276  1
  O  O25  1  0.007158  0.158600  0.222990  1
  O  O26  1  0.507170  0.658599  0.722991  1
  O  O27  1  0.591373  0.242813  0.973001  1
  O  O28  1  0.091377  0.742801  0.473004  1
  O  O29  1  0.492903  0.841295  0.722989  1
  O  O30  1  0.992903  0.341288  0.222983  1
  O  O31  1  0.908714  0.757070  0.472981  1
  O  O32  1  0.408709  0.257061  0.972982  1
  O  O33  1  0.007159  0.841278  0.776965  1
  O  O34  1  0.507166  0.341286  0.276956  1
  O  O35  1  0.408704  0.742807  0.026942  1
  O  O36  1  0.908698  0.242799  0.526935  1
  O  O37  1  0.492899  0.158606  0.276953  1
  O  O38  1  0.992897  0.658605  0.776957  1
  O  O39  1  0.091364  0.257072  0.526939  1
  O  O40  1  0.591357  0.757058  0.026940  1
  Si  Si41  1  0.011371  0.113079  0.993220  1
  Si  Si42  1  0.511372  0.613079  0.493219  1
  Si  Si43  1  0.636891  0.238589  0.743229  1
  Si  Si44  1  0.136891  0.738583  0.243224  1
  Si  Si45  1  0.488697  0.886783  0.493183  1
  Si  Si46  1  0.988697  0.386782  0.993190  1
  Si  Si47  1  0.863182  0.761263  0.243225  1
  Si  Si48  1  0.363181  0.261259  0.743222  1
  Si  Si49  1  0.011375  0.886778  0.006751  1
  Si  Si50  1  0.511377  0.386780  0.506743  1
  Si  Si51  1  0.363170  0.738583  0.256706  1
  Si  Si52  1  0.863173  0.238581  0.756704  1
  Si  Si53  1  0.488699  0.113082  0.506712  1
  Si  Si54  1  0.988698  0.613084  0.006721  1
  Si  Si55  1  0.136897  0.261267  0.756701  1
  Si  Si56  1  0.636900  0.761258  0.256695  1
  Si  Si57  1  0.000031  0.249945  0.374977  1
  Si  Si58  1  0.500030  0.749947  0.874976  1
  Si  Si59  1  0.500038  0.249947  0.124959  1
  Si  Si60  1  0.000041  0.749944  0.624957  1
