# generated using pymatgen
data_SiO2
_symmetry_space_group_name_H-M   'P 1'
_cell_length_a   13.65110261
_cell_length_b   13.65802788
_cell_length_c   13.65576622
_cell_angle_alpha   90.00000000
_cell_angle_beta   90.00000000
_cell_angle_gamma   90.00000000
_symmetry_Int_Tables_number   1
_chemical_formula_structural   SiO2
_chemical_formula_sum   'Si36 O72'
_cell_volume   2546.07855682
_cell_formula_units_Z   36
loop_
 _symmetry_equiv_pos_site_id
 _symmetry_equiv_pos_as_xyz
  1  'x, y, z'
loop_
 _atom_site_type_symbol
 _atom_site_label
 _atom_site_symmetry_multiplicity
 _atom_site_fract_x
 _atom_site_fract_y
 _atom_site_fract_z
 _atom_site_occupancy
  O  O1  1  0.500243  0.270286  0.270770  1
  O  O2  1  0.332071  0.331721  0.205719  1
  O  O3  1  0.668375  0.331608  0.206124  1
  O  O4  1  0.411556  0.161473  0.161213  1
  O  O5  1  0.161894  0.411457  0.160560  1
  O  O6  1  0.588881  0.161420  0.161468  1
  O  O7  1  0.838344  0.411406  0.161112  1
  O  O8  1  0.205879  0.331574  0.330300  1
  Si  Si9  1  0.759417  0.394908  0.240562  1
  O  O10  1  0.668869  0.205709  0.331319  1
  Si  Si11  1  0.500245  0.111515  0.111393  1
  Si  Si12  1  0.395304  0.240545  0.240475  1
  Si  Si13  1  0.240823  0.395165  0.239989  1
  Si  Si14  1  0.605263  0.240519  0.240701  1
  O  O15  1  0.332042  0.206528  0.331322  1
  O  O16  1  0.794298  0.331400  0.331265  1
  O  O17  1  0.729667  0.499862  0.270785  1
  O  O18  1  0.000100  0.499939  0.130883  1
  O  O19  1  0.267084  0.270097  0.500636  1
  O  O20  1  0.730030  0.269963  0.499625  1
  O  O21  1  0.132538  0.000521  0.500529  1
  Si  Si22  1  0.113165  0.112489  0.501038  1
  Si  Si23  1  0.237747  0.242711  0.609313  1
  Si  Si24  1  0.759918  0.240301  0.394424  1
  Si  Si25  1  0.760372  0.239869  0.604459  1
  Si  Si26  1  0.240863  0.241253  0.392449  1
  Si  Si27  1  0.889491  0.111083  0.498915  1
  O  O28  1  0.001157  0.131550  0.499298  1
  O  O29  1  0.162643  0.161754  0.411197  1
  O  O30  1  0.839650  0.160901  0.587807  1
  O  O31  1  0.839312  0.161304  0.410545  1
  O  O32  1  0.160690  0.161812  0.591156  1
  Si  Si33  1  0.501975  0.111739  0.887875  1
  O  O34  1  0.501303  0.269362  0.733400  1
  O  O35  1  0.668856  0.331132  0.799751  1
  O  O36  1  0.329343  0.329905  0.793338  1
  O  O37  1  0.591892  0.160880  0.839555  1
  O  O38  1  0.838911  0.408717  0.839392  1
  O  O39  1  0.412034  0.161116  0.838548  1
  O  O40  1  0.159829  0.408742  0.837958  1
  O  O41  1  0.266931  0.499310  0.730564  1
  Si  Si42  1  0.609950  0.241801  0.762480  1
  Si  Si43  1  0.758037  0.390199  0.762355  1
  Si  Si44  1  0.393427  0.240367  0.760164  1
  Si  Si45  1  0.237282  0.390559  0.757460  1
  O  O46  1  0.730600  0.498865  0.733466  1
  O  O47  1  0.793361  0.329936  0.669583  1
  O  O48  1  0.670487  0.206594  0.669782  1
  O  O49  1  0.200166  0.332008  0.667927  1
  O  O50  1  0.330234  0.207511  0.669820  1
  O  O51  1  0.999869  0.499405  0.867535  1
  O  O52  1  0.500870  0.131614  0.999702  1
  Si  Si53  1  0.111922  0.498853  0.886929  1
  Si  Si54  1  0.887906  0.498874  0.887361  1
  O  O55  1  0.131729  0.499482  0.998866  1
  O  O56  1  0.868280  0.499835  0.999295  1
  O  O57  1  0.206020  0.668380  0.331635  1
  O  O58  1  0.500090  0.729432  0.270965  1
  Si  Si59  1  0.500227  0.888008  0.111351  1
  O  O60  1  0.668427  0.668170  0.206367  1
  O  O61  1  0.331652  0.668429  0.206198  1
  O  O62  1  0.588863  0.838211  0.161460  1
  O  O63  1  0.838466  0.588610  0.161262  1
  O  O64  1  0.411544  0.838285  0.161571  1
  O  O65  1  0.161734  0.588661  0.160936  1
  O  O66  1  0.500245  0.999767  0.131229  1
  O  O67  1  0.270562  0.500101  0.270354  1
  Si  Si68  1  0.605116  0.759326  0.240905  1
  Si  Si69  1  0.759634  0.604855  0.240839  1
  Si  Si70  1  0.395068  0.759290  0.240916  1
  Si  Si71  1  0.240553  0.605104  0.240545  1
  O  O72  1  0.668722  0.793935  0.331385  1
  O  O73  1  0.794030  0.668191  0.331611  1
  O  O74  1  0.331711  0.793790  0.331885  1
  Si  Si75  1  0.888267  0.500043  0.111058  1
  Si  Si76  1  0.111878  0.500068  0.110689  1
  O  O77  1  0.270726  0.729268  0.500207  1
  O  O78  1  0.729817  0.730642  0.500767  1
  O  O79  1  0.161950  0.838625  0.411567  1
  Si  Si80  1  0.112048  0.888820  0.500096  1
  Si  Si81  1  0.240790  0.759123  0.395257  1
  Si  Si82  1  0.756926  0.758858  0.608634  1
  Si  Si83  1  0.759296  0.758990  0.393627  1
  Si  Si84  1  0.240767  0.759795  0.605004  1
  O  O85  1  0.000399  0.868513  0.500058  1
  Si  Si86  1  0.889003  0.888281  0.499235  1
  O  O87  1  0.161777  0.839060  0.588818  1
  O  O88  1  0.838885  0.837821  0.410725  1
  O  O89  1  0.837338  0.837670  0.588096  1
  O  O90  1  0.869120  0.999571  0.498980  1
  O  O91  1  0.500900  0.730911  0.729829  1
  Si  Si92  1  0.499551  0.888640  0.888397  1
  O  O93  1  0.331640  0.668650  0.793863  1
  O  O94  1  0.669716  0.669415  0.793503  1
  O  O95  1  0.410819  0.838545  0.838438  1
  O  O96  1  0.161534  0.588777  0.838038  1
  O  O97  1  0.588439  0.838108  0.836820  1
  O  O98  1  0.838890  0.588780  0.838357  1
  Si  Si99  1  0.759669  0.606876  0.760027  1
  Si  Si100  1  0.393675  0.759245  0.759424  1
  Si  Si101  1  0.240610  0.607535  0.759395  1
  Si  Si102  1  0.608912  0.759304  0.756550  1
  O  O103  1  0.500325  0.868095  0.999662  1
  O  O104  1  0.331541  0.794131  0.668623  1
  O  O105  1  0.793052  0.668513  0.669366  1
  O  O106  1  0.205856  0.669438  0.668703  1
  O  O107  1  0.667840  0.796141  0.667411  1
  O  O108  1  0.500754  0.999954  0.868397  1
