# generated using pymatgen
data_SiO2
_symmetry_space_group_name_H-M   'P 1'
_cell_length_a   14.42862184
_cell_length_b   7.12517291
_cell_length_c   8.83858290
_cell_angle_alpha   90.00000000
_cell_angle_beta   90.00000000
_cell_angle_gamma   90.00000000
_symmetry_Int_Tables_number   1
_chemical_formula_structural   SiO2
_chemical_formula_sum   'Si16 O32'
_cell_volume   908.663113522
_cell_formula_units_Z   16
loop_
 _symmetry_equiv_pos_site_id
 _symmetry_equiv_pos_as_xyz
  1  'x, y, z'
loop_
 _atom_site_type_symbol
 _atom_site_label
 _atom_site_symmetry_multiplicity
 _atom_site_fract_x
 _atom_site_fract_y
 _atom_site_fract_z
 _atom_site_occupancy
  O  O1  1  0.080943  0.325231  0.224175  1
  O  O2  1  0.419750  0.324383  0.226165  1
  O  O3  1  0.080272  0.675231  0.226134  1
  O  O4  1  0.419123  0.674388  0.224482  1
  O  O5  1  0.919657  0.675217  0.773763  1
  O  O6  1  0.581032  0.674388  0.775748  1
  O  O7  1  0.918996  0.325233  0.775717  1
  O  O8  1  0.580416  0.324394  0.774093  1
  O  O9  1  0.119582  0.000331  0.356297  1
  O  O10  1  0.380384  0.999282  0.356327  1
  O  O11  1  0.880406  0.000324  0.643563  1
  O  O12  1  0.619565  0.999291  0.643599  1
  O  O13  1  0.129973  0.324194  0.497274  1
  O  O14  1  0.369970  0.323296  0.498381  1
  O  O15  1  0.129982  0.676284  0.498465  1
  O  O16  1  0.369949  0.675421  0.497380  1
  O  O17  1  0.870029  0.676278  0.501374  1
  O  O18  1  0.629911  0.675399  0.502475  1
  O  O19  1  0.870041  0.324186  0.502564  1
  O  O20  1  0.629892  0.323338  0.501497  1
  O  O21  1  0.250192  0.235540  0.304643  1
  O  O22  1  0.249776  0.764052  0.304721  1
  O  O23  1  0.750193  0.764075  0.695028  1
  O  O24  1  0.749785  0.235515  0.695114  1
  O  O25  1  0.071635  0.498706  0.737227  1
  O  O26  1  0.428508  0.500731  0.736908  1
  O  O27  1  0.928281  0.498702  0.262498  1
  O  O28  1  0.571850  0.500700  0.262199  1
  O  O29  1  0.249993  0.499708  0.652334  1
  O  O30  1  0.749991  0.499699  0.347636  1
  O  O31  1  0.000075  0.504611  0.999895  1
  O  O32  1  0.499141  0.495566  0.999659  1
  Si  Si33  1  0.143418  0.216214  0.342397  1
  Si  Si34  1  0.356819  0.215381  0.343375  1
  Si  Si35  1  0.143145  0.784221  0.343450  1
  Si  Si36  1  0.356548  0.783394  0.342508  1
  Si  Si37  1  0.856824  0.784214  0.656379  1
  Si  Si38  1  0.643416  0.783393  0.657355  1
  Si  Si39  1  0.856557  0.216208  0.657432  1
  Si  Si40  1  0.643150  0.215395  0.656504  1
  Si  Si41  1  0.143829  0.499637  0.604923  1
  Si  Si42  1  0.356150  0.499860  0.604910  1
  Si  Si43  1  0.856149  0.499630  0.394928  1
  Si  Si44  1  0.643826  0.499858  0.394922  1
  Si  Si45  1  0.021674  0.500285  0.172182  1
  Si  Si46  1  0.478322  0.499375  0.172214  1
  Si  Si47  1  0.978283  0.500282  0.827635  1
  Si  Si48  1  0.521718  0.499383  0.827667  1
