# generated using pymatgen
data_SiO2
_symmetry_space_group_name_H-M   'P 1'
_cell_length_a   10.33558346
_cell_length_b   10.15581638
_cell_length_c   7.43612829
_cell_angle_alpha   90.00000000
_cell_angle_beta   90.00000000
_cell_angle_gamma   120.00000000
_symmetry_Int_Tables_number   1
_chemical_formula_structural   SiO2
_chemical_formula_sum   'Si9 O18'
_cell_volume   675.969877992
_cell_formula_units_Z   9
loop_
 _symmetry_equiv_pos_site_id
 _symmetry_equiv_pos_as_xyz
  1  'x, y, z'
loop_
 _atom_site_type_symbol
 _atom_site_label
 _atom_site_symmetry_multiplicity
 _atom_site_fract_x
 _atom_site_fract_y
 _atom_site_fract_z
 _atom_site_occupancy
  O  O1  1  0.323750  0.668532  0.831461  1
  O  O2  1  0.323568  0.648660  0.499563  1
  O  O3  1  0.344419  0.660633  0.163562  1
  O  O4  1  0.687741  0.335117  0.834661  1
  O  O5  1  0.657078  0.330284  0.165588  1
  O  O6  1  0.678002  0.350611  0.498953  1
  O  O7  1  0.486318  0.371521  0.714695  1
  O  O8  1  0.607666  0.109797  0.382714  1
  O  O9  1  0.891610  0.528238  0.045975  1
  O  O10  1  0.361896  0.468386  0.954899  1
  O  O11  1  0.111732  0.631080  0.288665  1
  O  O12  1  0.495806  0.890977  0.615669  1
  O  O13  1  0.518281  0.635320  0.710580  1
  O  O14  1  0.351305  0.884234  0.361170  1
  O  O15  1  0.108218  0.473784  0.042143  1
  O  O16  1  0.633261  0.525234  0.958247  1
  O  O17  1  0.885785  0.365204  0.290565  1
  O  O18  1  0.467934  0.117300  0.638540  1
  Si  Si19  1  0.278456  0.556546  0.994590  1
  Si  Si20  1  0.429336  0.718954  0.664889  1
  Si  Si21  1  0.280906  0.709601  0.326406  1
  Si  Si22  1  0.577897  0.288968  0.674303  1
  Si  Si23  1  0.720353  0.439376  0.999139  1
  Si  Si24  1  0.713732  0.280664  0.332165  1
  Si  Si25  1  0.000964  0.500350  0.167274  1
  Si  Si26  1  0.499532  0.502922  0.837029  1
  Si  Si27  1  0.468990  0.003522  0.498725  1
