# generated using pymatgen
data_SiO2
_symmetry_space_group_name_H-M   'P 1'
_cell_length_a   13.67170804
_cell_length_b   13.69327883
_cell_length_c   30.78219742
_cell_angle_alpha   90.00000000
_cell_angle_beta   90.00000000
_cell_angle_gamma   90.00000000
_symmetry_Int_Tables_number   1
_chemical_formula_structural   SiO2
_chemical_formula_sum   'Si76 O152'
_cell_volume   5762.75088665
_cell_formula_units_Z   76
loop_
 _symmetry_equiv_pos_site_id
 _symmetry_equiv_pos_as_xyz
  1  'x, y, z'
loop_
 _atom_site_type_symbol
 _atom_site_label
 _atom_site_symmetry_multiplicity
 _atom_site_fract_x
 _atom_site_fract_y
 _atom_site_fract_z
 _atom_site_occupancy
  O  O1  1  0.000631  0.130914  0.000582  1
  O  O2  1  0.161540  0.160073  0.040084  1
  O  O3  1  0.161456  0.838767  0.038739  1
  O  O4  1  0.162179  0.408541  0.150256  1
  O  O5  1  0.410890  0.836190  0.149019  1
  O  O6  1  0.411620  0.163642  0.148732  1
  O  O7  1  0.163775  0.587375  0.149467  1
  O  O8  1  0.411243  0.001173  0.281847  1
  Si  Si9  1  0.111772  0.111476  0.000583  1
  O  O10  1  0.000261  0.588650  0.281753  1
  O  O11  1  0.090989  0.499480  0.218828  1
  O  O12  1  0.269201  0.500186  0.101644  1
  O  O13  1  0.498224  0.730339  0.101111  1
  O  O14  1  0.331145  0.202886  0.073872  1
  O  O15  1  0.207506  0.670155  0.074857  1
  O  O16  1  0.206256  0.330076  0.074926  1
  O  O17  1  0.330304  0.796207  0.074247  1
  O  O18  1  0.331353  0.332561  0.128805  1
  O  O19  1  0.332981  0.666153  0.129940  1
  Si  Si20  1  0.391138  0.001118  0.332176  1
  Si  Si21  1  0.240147  0.393754  0.114700  1
  Si  Si22  1  0.389257  0.756648  0.113281  1
  Si  Si23  1  0.390612  0.241748  0.112782  1
  Si  Si24  1  0.243553  0.607842  0.114145  1
  Si  Si25  1  0.001369  0.392508  0.331744  1
  Si  Si26  1  0.241723  0.760386  0.047927  1
  Si  Si27  1  0.001512  0.500192  0.249333  1
  Si  Si28  1  0.241334  0.238616  0.047665  1
  Si  Si29  1  0.106537  0.497619  0.169088  1
  O  O30  1  0.499294  0.911717  0.218193  1
  O  O31  1  0.498660  0.268701  0.100619  1
  O  O32  1  0.000828  0.411544  0.281601  1
  Si  Si33  1  0.499965  0.000356  0.249916  1
  O  O34  1  0.269121  0.732763  0.000111  1
  O  O35  1  0.000618  0.499365  0.650333  1
  O  O36  1  0.499882  0.999937  0.349637  1
  O  O37  1  0.369159  0.499967  0.499969  1
  Si  Si38  1  0.389104  0.388336  0.499953  1
  O  O39  1  0.339904  0.660902  0.539466  1
  O  O40  1  0.340146  0.339157  0.539804  1
  O  O41  1  0.339783  0.339571  0.460083  1
  O  O42  1  0.338981  0.659525  0.459458  1
  O  O43  1  0.336000  0.091220  0.350109  1
  O  O44  1  0.088378  0.664127  0.351123  1
  O  O45  1  0.090436  0.336621  0.350112  1
  O  O46  1  0.335764  0.910907  0.349982  1
  O  O47  1  0.090968  0.663312  0.649995  1
  O  O48  1  0.336393  0.090004  0.649865  1
  O  O49  1  0.336025  0.909787  0.649989  1
  O  O50  1  0.089930  0.335442  0.649829  1
  O  O51  1  0.231453  0.000932  0.398558  1
  O  O52  1  0.000793  0.768503  0.399332  1
  O  O53  1  0.000828  0.768305  0.601721  1
  O  O54  1  0.231548  0.999932  0.601537  1
  Si  Si55  1  0.388036  0.611735  0.499407  1
  O  O56  1  0.294545  0.830253  0.574812  1
  O  O57  1  0.170678  0.294573  0.574868  1
  O  O58  1  0.170572  0.705103  0.575102  1
  O  O59  1  0.294807  0.169675  0.574814  1
  O  O60  1  0.169668  0.294959  0.425152  1
  O  O61  1  0.293504  0.829613  0.424783  1
  O  O62  1  0.294369  0.170613  0.424978  1
  O  O63  1  0.168739  0.702264  0.425925  1
  O  O64  1  0.166240  0.167403  0.370736  1
  O  O65  1  0.167211  0.833161  0.371440  1
  O  O66  1  0.167286  0.832774  0.629471  1
  O  O67  1  0.166949  0.166606  0.629168  1
  O  O68  1  0.232307  0.766197  0.499887  1
  O  O69  1  0.232956  0.232927  0.499931  1
  Si  Si70  1  0.258107  0.107885  0.385513  1
  Si  Si71  1  0.108932  0.741763  0.387300  1
  Si  Si72  1  0.106315  0.258846  0.385761  1
  Si  Si73  1  0.258352  0.894117  0.385572  1
  Si  Si74  1  0.107840  0.741118  0.614619  1
  Si  Si75  1  0.258645  0.106963  0.614346  1
  Si  Si76  1  0.258489  0.892853  0.614387  1
  Si  Si77  1  0.107599  0.258283  0.614209  1
  Si  Si78  1  0.261010  0.739207  0.547776  1
  Si  Si79  1  0.261325  0.260574  0.547618  1
  Si  Si80  1  0.260698  0.261240  0.452247  1
  Si  Si81  1  0.259188  0.737450  0.451664  1
  O  O82  1  0.000230  0.499828  0.349289  1
  O  O83  1  0.499842  0.630753  0.499237  1
  O  O84  1  0.499998  0.998993  0.650688  1
  O  O85  1  0.001684  0.500361  0.848975  1
  O  O86  1  0.130779  0.000462  0.999665  1
  O  O87  1  0.160842  0.840094  0.959820  1
  O  O88  1  0.162497  0.162664  0.960937  1
  O  O89  1  0.409277  0.835650  0.849941  1
  O  O90  1  0.164234  0.409188  0.850554  1
  O  O91  1  0.165337  0.590332  0.850234  1
  O  O92  1  0.408409  0.163096  0.849792  1
  O  O93  1  0.089348  0.499236  0.782113  1
  O  O94  1  0.000335  0.588130  0.718131  1
  O  O95  1  0.411172  0.999927  0.718586  1
  O  O96  1  0.499678  0.908827  0.781557  1
  O  O97  1  0.268578  0.500362  0.899026  1
  O  O98  1  0.498162  0.999927  0.848242  1
  O  O99  1  0.206189  0.670623  0.925327  1
  O  O100  1  0.332056  0.202931  0.925293  1
  O  O101  1  0.330932  0.794855  0.925197  1
  O  O102  1  0.204408  0.331532  0.925719  1
  O  O103  1  0.334318  0.666860  0.871078  1
  O  O104  1  0.332708  0.331648  0.871874  1
  O  O105  1  0.269876  0.268142  0.999463  1
  Si  Si106  1  0.394104  0.758454  0.885825  1
  Si  Si107  1  0.240713  0.392361  0.886703  1
  Si  Si108  1  0.242395  0.607741  0.885923  1
  Si  Si109  1  0.393202  0.239168  0.886291  1
  Si  Si110  1  0.499929  0.999724  0.751674  1
  Si  Si111  1  0.110758  0.499824  0.832397  1
  Si  Si112  1  0.497777  0.108279  0.830977  1
  O  O113  1  0.499827  0.090732  0.781449  1
  Si  Si114  1  0.391319  0.999837  0.668015  1
  Si  Si115  1  0.110745  0.889557  0.999163  1
  Si  Si116  1  0.240073  0.761370  0.952557  1
  Si  Si117  1  0.242951  0.241851  0.950765  1
  Si  Si118  1  0.000728  0.607929  0.667749  1
  Si  Si119  1  0.498255  0.891465  0.831116  1
  O  O120  1  0.998352  0.498661  0.151051  1
  O  O121  1  0.839444  0.159897  0.040182  1
  O  O122  1  0.838642  0.837435  0.039145  1
  O  O123  1  0.590334  0.163833  0.149741  1
  O  O124  1  0.835792  0.590858  0.149527  1
  O  O125  1  0.834050  0.409768  0.149784  1
  O  O126  1  0.589549  0.836131  0.150088  1
  O  O127  1  0.588600  0.999306  0.281938  1
  O  O128  1  0.500575  0.088797  0.218042  1
  O  O129  1  0.911311  0.500276  0.217801  1
  Si  Si130  1  0.998953  0.607309  0.331945  1
  Si  Si131  1  0.889597  0.110546  0.000825  1
  O  O132  1  0.731427  0.499946  0.100914  1
  O  O133  1  0.793742  0.329392  0.074696  1
  O  O134  1  0.669315  0.793103  0.075257  1
  O  O135  1  0.669195  0.204997  0.074691  1
  O  O136  1  0.797075  0.668295  0.074364  1
  O  O137  1  0.665245  0.333192  0.128803  1
  O  O138  1  0.666558  0.667203  0.128790  1
  O  O139  1  0.869545  0.999621  0.000296  1
  O  O140  1  0.731827  0.731552  0.000696  1
  Si  Si141  1  0.605804  0.241407  0.113999  1
  Si  Si142  1  0.759170  0.608136  0.113407  1
  Si  Si143  1  0.757116  0.392358  0.113987  1
  Si  Si144  1  0.605288  0.758362  0.114437  1
  Si  Si145  1  0.608727  0.998803  0.332300  1
  Si  Si146  1  0.501482  0.107501  0.167975  1
  Si  Si147  1  0.889042  0.500082  0.167621  1
  Si  Si148  1  0.760161  0.238566  0.047452  1
  Si  Si149  1  0.760055  0.757525  0.048813  1
  O  O150  1  0.501540  0.000072  0.150577  1
  Si  Si151  1  0.500673  0.892850  0.168188  1
  Si  Si152  1  0.612899  0.387601  0.500016  1
  O  O153  1  0.999750  0.232835  0.601034  1
  Si  Si154  1  0.611042  0.610457  0.499442  1
  O  O155  1  0.631254  0.499389  0.499832  1
  O  O156  1  0.661205  0.661888  0.539041  1
  O  O157  1  0.661451  0.340387  0.540205  1
  O  O158  1  0.661042  0.339315  0.459945  1
  O  O159  1  0.661364  0.660122  0.460170  1
  O  O160  1  0.911755  0.335760  0.350808  1
  O  O161  1  0.663683  0.908553  0.350231  1
  O  O162  1  0.664022  0.088905  0.350260  1
  O  O163  1  0.909696  0.662720  0.350448  1
  O  O164  1  0.662917  0.907713  0.649889  1
  O  O165  1  0.908619  0.336810  0.649600  1
  O  O166  1  0.910434  0.662943  0.649716  1
  O  O167  1  0.663775  0.088452  0.649965  1
  O  O168  1  0.999165  0.231677  0.399253  1
  O  O169  1  0.768981  0.998587  0.398451  1
  O  O170  1  0.767169  0.998936  0.601196  1
  O  O171  1  0.830186  0.706824  0.574932  1
  O  O172  1  0.706820  0.171122  0.575121  1
  O  O173  1  0.701649  0.830945  0.574399  1
  O  O174  1  0.831497  0.299690  0.574464  1
  O  O175  1  0.707174  0.169447  0.425190  1
  O  O176  1  0.831028  0.705549  0.425758  1
  O  O177  1  0.831026  0.297723  0.425641  1
  O  O178  1  0.705855  0.829458  0.425245  1
  O  O179  1  0.832618  0.166751  0.371335  1
  O  O180  1  0.833416  0.831815  0.370736  1
  O  O181  1  0.832200  0.831620  0.628894  1
  O  O182  1  0.832365  0.167560  0.628591  1
  O  O183  1  0.767505  0.769333  0.500587  1
  O  O184  1  0.769385  0.235123  0.500209  1
  Si  Si185  1  0.891052  0.258255  0.387029  1
  Si  Si186  1  0.741775  0.891667  0.385538  1
  Si  Si187  1  0.741806  0.105500  0.385715  1
  Si  Si188  1  0.893710  0.740782  0.385984  1
  Si  Si189  1  0.739313  0.890645  0.613626  1
  Si  Si190  1  0.891173  0.260595  0.613373  1
  Si  Si191  1  0.893786  0.740836  0.614358  1
  Si  Si192  1  0.741090  0.106294  0.614325  1
  Si  Si193  1  0.739332  0.742506  0.548484  1
  Si  Si194  1  0.741853  0.263429  0.548587  1
  Si  Si195  1  0.741286  0.262009  0.451772  1
  Si  Si196  1  0.740046  0.739510  0.452938  1
  O  O197  1  0.500959  0.368455  0.500024  1
  Si  Si198  1  0.999403  0.390608  0.667540  1
  O  O199  1  0.501218  0.268277  0.899169  1
  O  O200  1  0.731266  0.267426  0.999900  1
  O  O201  1  0.999719  0.869239  0.999379  1
  O  O202  1  0.839011  0.840191  0.959927  1
  O  O203  1  0.838998  0.161521  0.961259  1
  O  O204  1  0.836548  0.588617  0.850298  1
  O  O205  1  0.588203  0.164606  0.850706  1
  O  O206  1  0.588617  0.835425  0.851180  1
  O  O207  1  0.836717  0.411582  0.850399  1
  O  O208  1  0.910177  0.499740  0.781279  1
  Si  Si209  1  0.758830  0.240002  0.952077  1
  Si  Si210  1  0.759158  0.761891  0.952636  1
  O  O211  1  0.588702  0.998784  0.718545  1
  O  O212  1  0.729492  0.499984  0.898548  1
  O  O213  1  0.501350  0.730812  0.899310  1
  O  O214  1  0.669380  0.796732  0.926376  1
  O  O215  1  0.792719  0.330315  0.925048  1
  O  O216  1  0.792431  0.670536  0.925072  1
  O  O217  1  0.670225  0.204071  0.925641  1
  O  O218  1  0.666846  0.666073  0.870482  1
  O  O219  1  0.666941  0.334225  0.870107  1
  Si  Si220  1  0.756649  0.607219  0.885663  1
  Si  Si221  1  0.610674  0.243594  0.886708  1
  Si  Si222  1  0.610718  0.756548  0.887395  1
  Si  Si223  1  0.756650  0.392704  0.885693  1
  Si  Si224  1  0.894496  0.500118  0.830919  1
  Si  Si225  1  0.608690  0.998013  0.667956  1
  Si  Si226  1  0.888541  0.888559  0.999466  1
  Si  Si227  1  0.999437  0.499340  0.750400  1
  O  O228  1  0.999507  0.410643  0.717990  1
