# generated using pymatgen
data_SiO2
_symmetry_space_group_name_H-M   'P 1'
_cell_length_a   12.84059186
_cell_length_b   12.82263223
_cell_length_c   7.64718820
_cell_angle_alpha   90.00000000
_cell_angle_beta   90.00000000
_cell_angle_gamma   120.00000000
_symmetry_Int_Tables_number   1
_chemical_formula_structural   SiO2
_chemical_formula_sum   'Si18 O36'
_cell_volume   1090.42208447
_cell_formula_units_Z   18
loop_
 _symmetry_equiv_pos_site_id
 _symmetry_equiv_pos_as_xyz
  1  'x, y, z'
loop_
 _atom_site_type_symbol
 _atom_site_label
 _atom_site_symmetry_multiplicity
 _atom_site_fract_x
 _atom_site_fract_y
 _atom_site_fract_z
 _atom_site_occupancy
  O  O1  1  0.098000  0.209601  0.218476  1
  O  O2  1  0.097819  0.209449  0.778420  1
  O  O3  1  0.238145  0.121811  0.240747  1
  O  O4  1  0.238091  0.121774  0.756532  1
  O  O5  1  0.023357  0.344958  0.331285  1
  O  O6  1  0.023374  0.345026  0.665742  1
  O  O7  1  0.308064  0.345159  0.331331  1
  O  O8  1  0.307860  0.344881  0.665747  1
  Si  Si9  1  0.325256  0.424064  0.498681  1
  O  O10  1  0.264903  0.271163  0.998572  1
  O  O11  1  0.219803  0.453279  0.498550  1
  Si  Si12  1  0.232546  0.239327  0.798267  1
  Si  Si13  1  0.232735  0.239454  0.198946  1
  Si  Si14  1  0.085118  0.424015  0.498475  1
  O  O15  1  0.097832  0.893960  0.218377  1
  O  O16  1  0.097714  0.893903  0.778214  1
  O  O17  1  0.307784  0.968314  0.331501  1
  O  O18  1  0.307774  0.968313  0.665895  1
  O  O19  1  0.023266  0.683856  0.331350  1
  O  O20  1  0.023262  0.683842  0.665870  1
  O  O21  1  0.264860  0.999254  0.998606  1
  O  O22  1  0.219714  0.771948  0.498562  1
  O  O23  1  0.077904  0.541704  0.498566  1
  O  O24  1  0.450116  0.541825  0.499071  1
  O  O25  1  0.450013  0.914073  0.497813  1
  Si  Si26  1  0.084988  0.666550  0.498612  1
  Si  Si27  1  0.325097  0.906657  0.498653  1
  Si  Si28  1  0.232574  0.998697  0.198916  1
  Si  Si29  1  0.232495  0.998668  0.798305  1
  O  O30  1  0.870003  0.121862  0.240455  1
  O  O31  1  0.869870  0.121834  0.756307  1
  O  O32  1  0.992659  0.271130  0.998543  1
  Si  Si33  1  0.993099  0.239384  0.198830  1
  Si  Si34  1  0.992973  0.239348  0.798156  1
  O  O35  1  0.782386  0.893993  0.218482  1
  O  O36  1  0.782245  0.893905  0.778347  1
  O  O37  1  0.869724  0.753497  0.240484  1
  O  O38  1  0.869756  0.753488  0.756390  1
  O  O39  1  0.646608  0.683984  0.330994  1
  O  O40  1  0.646601  0.683960  0.665468  1
  O  O41  1  0.646851  0.968486  0.331113  1
  O  O42  1  0.646673  0.968457  0.665541  1
  O  O43  1  0.720506  0.727043  0.998199  1
  O  O44  1  0.992653  0.727106  0.998429  1
  O  O45  1  0.538261  0.772101  0.498295  1
  Si  Si46  1  0.752283  0.759156  0.198560  1
  Si  Si47  1  0.752265  0.759109  0.797914  1
  Si  Si48  1  0.992873  0.759154  0.798184  1
  Si  Si49  1  0.567701  0.906874  0.498233  1
  Si  Si50  1  0.992869  0.759127  0.198903  1
  Si  Si51  1  0.567660  0.666735  0.498278  1
  Si  Si52  1  0.752439  0.998832  0.198655  1
  Si  Si53  1  0.752300  0.998758  0.797992  1
  O  O54  1  0.720611  0.999230  0.998339  1
