# generated using pymatgen
data_SiO2
_symmetry_space_group_name_H-M   'P 1'
_cell_length_a   24.13509102
_cell_length_b   13.85795342
_cell_length_c   12.35340462
_cell_angle_alpha   90.00000000
_cell_angle_beta   109.12820000
_cell_angle_gamma   90.00000000
_symmetry_Int_Tables_number   1
_chemical_formula_structural   SiO2
_chemical_formula_sum   'Si68 O136'
_cell_volume   3903.63278727
_cell_formula_units_Z   68
loop_
 _symmetry_equiv_pos_site_id
 _symmetry_equiv_pos_as_xyz
  1  'x, y, z'
loop_
 _atom_site_type_symbol
 _atom_site_label
 _atom_site_symmetry_multiplicity
 _atom_site_fract_x
 _atom_site_fract_y
 _atom_site_fract_z
 _atom_site_occupancy
  Si  Si1  1  0.307372  0.211418  0.253243  1
  Si  Si2  1  0.192839  0.288951  0.746736  1
  Si  Si3  1  0.311610  0.209126  0.505208  1
  Si  Si4  1  0.188788  0.291178  0.494935  1
  Si  Si5  1  0.319873  0.210239  0.868144  1
  Si  Si6  1  0.180337  0.289719  0.131732  1
  Si  Si7  1  0.129385  0.191425  0.896093  1
  Si  Si8  1  0.113112  0.190220  0.274484  1
  Si  Si9  1  0.006739  0.112889  0.879214  1
  Si  Si10  1  0.183551  0.000118  0.315960  1
  O  O11  1  0.063516  0.165988  0.875576  1
  O  O12  1  0.222136  0.000184  0.445346  1
  O  O13  1  0.269835  0.000195  0.667179  1
  O  O14  1  0.223815  0.000687  0.239582  1
  O  O15  1  0.046837  0.163598  0.213128  1
  O  O16  1  0.308011  0.099286  0.230672  1
  O  O17  1  0.192358  0.400987  0.769683  1
  O  O18  1  0.148156  0.235897  0.795686  1
  O  O19  1  0.318120  0.226717  0.384330  1
  O  O20  1  0.181287  0.274530  0.615230  1
  O  O21  1  0.243607  0.247303  0.186352  1
  O  O22  1  0.256648  0.252803  0.813028  1
  O  O23  1  0.311457  0.097707  0.532679  1
  O  O24  1  0.189099  0.402397  0.466745  1
  O  O25  1  0.250507  0.249902  0.502440  1
  O  O26  1  0.138190  0.241049  0.395104  1
  O  O27  1  0.155077  0.258977  0.002861  1
  O  O28  1  0.316659  0.097497  0.850692  1
  O  O29  1  0.183522  0.402436  0.149359  1
  O  O30  1  0.138279  0.247910  0.192554  1
  O  O31  1  0.008582  0.000547  0.859229  1
  O  O32  1  0.161969  0.093131  0.929087  1
  O  O33  1  0.144701  0.091276  0.288055  1
  Si  Si34  1  0.281201  0.000151  0.548691  1
  O  O35  1  0.248400  0.000189  0.056664  1
  O  O36  1  0.271574  0.499974  0.159385  1
  Si  Si37  1  0.276005  0.000206  0.190418  1
  Si  Si38  1  0.199060  0.000038  0.936590  1
  Si  Si39  1  0.215557  0.499988  0.198549  1
  Si  Si40  1  0.284615  0.000049  0.801075  1
  O  O41  1  0.252010  0.499987  0.943295  1
  O  O42  1  0.228619  0.000000  0.840346  1
  Si  Si43  1  0.306912  0.788778  0.253028  1
  Si  Si44  1  0.192548  0.711171  0.746731  1
  Si  Si45  1  0.311394  0.791074  0.505164  1
  Si  Si46  1  0.188612  0.708956  0.495021  1
  Si  Si47  1  0.319646  0.789735  0.867810  1
  Si  Si48  1  0.179981  0.710081  0.131353  1
  Si  Si49  1  0.129127  0.808912  0.895990  1
  Si  Si50  1  0.113144  0.809914  0.274439  1
  Si  Si51  1  0.006597  0.888183  0.878845  1
  Si  Si52  1  0.301276  0.500034  0.063393  1
  O  O53  1  0.047053  0.837589  0.213230  1
  Si  Si54  1  0.219239  0.500122  0.451012  1
  O  O55  1  0.276274  0.500534  0.759990  1
  O  O56  1  0.307680  0.900913  0.230739  1
  O  O57  1  0.192155  0.599154  0.769958  1
  O  O58  1  0.147891  0.764352  0.795624  1
  O  O59  1  0.317669  0.773348  0.384109  1
  O  O60  1  0.180963  0.725427  0.615205  1
  O  O61  1  0.243160  0.752908  0.185973  1
  O  O62  1  0.256365  0.747390  0.812812  1
  O  O63  1  0.311358  0.902512  0.532623  1
  O  O64  1  0.189023  0.597771  0.466740  1
  O  O65  1  0.250333  0.750392  0.502795  1
  O  O66  1  0.138068  0.759203  0.395170  1
  O  O67  1  0.154518  0.741055  0.002577  1
  O  O68  1  0.316589  0.902467  0.850306  1
  O  O69  1  0.183414  0.597356  0.148909  1
  O  O70  1  0.137909  0.751411  0.192476  1
  O  O71  1  0.063307  0.834957  0.875063  1
  O  O72  1  0.162052  0.906884  0.929390  1
  O  O73  1  0.145368  0.908241  0.287628  1
  O  O74  1  0.278261  0.500146  0.554447  1
  Si  Si75  1  0.224256  0.500119  0.809632  1
  O  O76  1  0.230535  0.500167  0.332488  1
  O  O77  1  0.000133  0.875468  0.000086  1
  Si  Si78  1  0.316697  0.500137  0.683923  1
  Si  Si79  1  0.370897  0.308630  0.103800  1
  Si  Si80  1  0.629049  0.308232  0.896299  1
  Si  Si81  1  0.387108  0.309948  0.725696  1
  Si  Si82  1  0.612990  0.309559  0.274470  1
  Si  Si83  1  0.493420  0.388142  0.121309  1
  Si  Si84  1  0.506679  0.388205  0.879086  1
  O  O85  1  0.352140  0.264328  0.204354  1
  O  O86  1  0.647683  0.263631  0.795805  1
  O  O87  1  0.362446  0.259026  0.604921  1
  O  O88  1  0.637952  0.259121  0.395384  1
  O  O89  1  0.345125  0.241113  0.996998  1
  O  O90  1  0.654310  0.240259  0.002813  1
  O  O91  1  0.362149  0.251680  0.807558  1
  O  O92  1  0.637557  0.250482  0.192595  1
  O  O93  1  0.355007  0.408411  0.712267  1
  O  O94  1  0.645511  0.407575  0.287244  1
  O  O95  1  0.546940  0.337670  0.213470  1
  O  O96  1  0.453185  0.337473  0.787205  1
  O  O97  1  0.436759  0.334370  0.124549  1
  O  O98  1  0.563311  0.334718  0.875394  1
  O  O99  1  0.500185  0.375538  0.000304  1
  O  O100  1  0.338331  0.406929  0.070801  1
  O  O101  1  0.662120  0.406078  0.929686  1
  Si  Si102  1  0.370582  0.691751  0.103694  1
  Si  Si103  1  0.629627  0.691037  0.896220  1
  Si  Si104  1  0.387110  0.690285  0.725496  1
  Si  Si105  1  0.613011  0.689840  0.274571  1
  Si  Si106  1  0.493201  0.612883  0.120944  1
  Si  Si107  1  0.506844  0.612918  0.879031  1
  O  O108  1  0.351719  0.735971  0.204158  1
  O  O109  1  0.648541  0.735242  0.795799  1
  O  O110  1  0.362304  0.741246  0.604779  1
  O  O111  1  0.637800  0.741164  0.395055  1
  O  O112  1  0.344765  0.759093  0.996752  1
  O  O113  1  0.655629  0.758211  0.003264  1
  O  O114  1  0.361893  0.747977  0.807378  1
  O  O115  1  0.638502  0.746793  0.192600  1
  O  O116  1  0.355480  0.591362  0.711892  1
  O  O117  1  0.644293  0.590569  0.288822  1
  O  O118  1  0.546734  0.663567  0.212849  1
  O  O119  1  0.453350  0.663610  0.787034  1
  O  O120  1  0.436489  0.666363  0.124404  1
  O  O121  1  0.563653  0.666130  0.875622  1
  O  O122  1  0.500006  0.625519  0.999975  1
  O  O123  1  0.491198  0.500518  0.140862  1
  O  O124  1  0.661814  0.592398  0.928968  1
  O  O125  1  0.338202  0.593287  0.070796  1
  O  O126  1  0.508739  0.500543  0.859231  1
  Si  Si127  1  0.692319  0.210513  0.746820  1
  Si  Si128  1  0.806620  0.288039  0.253109  1
  Si  Si129  1  0.688502  0.208804  0.495185  1
  Si  Si130  1  0.811282  0.290927  0.505338  1
  Si  Si131  1  0.679702  0.209180  0.131566  1
  Si  Si132  1  0.819443  0.288885  0.868033  1
  Si  Si133  1  0.870481  0.191088  0.104008  1
  Si  Si134  1  0.886998  0.189939  0.725499  1
  Si  Si135  1  0.993271  0.112912  0.121266  1
  O  O136  1  0.953263  0.163652  0.787264  1
  Si  Si137  1  0.781013  0.499933  0.548934  1
  O  O138  1  0.721950  0.499729  0.445591  1
  O  O139  1  0.748252  0.499630  0.056834  1
  O  O140  1  0.776273  0.000785  0.760271  1
  Si  Si141  1  0.698979  0.499378  0.936713  1
  O  O142  1  0.691887  0.098445  0.769912  1
  O  O143  1  0.807351  0.400127  0.230742  1
  O  O144  1  0.851465  0.235242  0.204322  1
  O  O145  1  0.680796  0.225029  0.615356  1
  O  O146  1  0.817469  0.272888  0.384266  1
  O  O147  1  0.756127  0.246678  0.813109  1
  O  O148  1  0.742862  0.252091  0.186254  1
  O  O149  1  0.688919  0.097665  0.466778  1
  O  O150  1  0.811255  0.402416  0.532651  1
  O  O151  1  0.750241  0.250270  0.503142  1
  O  O152  1  0.862214  0.241213  0.604993  1
  O  O153  1  0.844620  0.258359  0.997008  1
  O  O154  1  0.683214  0.096433  0.149044  1
  O  O155  1  0.816497  0.401600  0.850462  1
  O  O156  1  0.861596  0.247010  0.807511  1
  O  O157  1  0.936462  0.166025  0.124867  1
  O  O158  1  0.838174  0.092572  0.071014  1
  O  O159  1  0.855653  0.090718  0.711357  1
  O  O160  1  0.728624  0.499360  0.840623  1
  O  O161  1  0.769735  0.499653  0.667488  1
  Si  Si162  1  0.784630  0.499295  0.801409  1
  Si  Si163  1  0.683424  0.499717  0.316163  1
  Si  Si164  1  0.775871  0.499538  0.190551  1
  O  O165  1  0.991418  0.000525  0.141003  1
  O  O166  1  0.999985  0.125601  0.000224  1
  Si  Si167  1  0.693358  0.788062  0.746951  1
  Si  Si168  1  0.807882  0.710499  0.253433  1
  Si  Si169  1  0.688733  0.790870  0.494728  1
  Si  Si170  1  0.811547  0.708842  0.504981  1
  Si  Si171  1  0.680726  0.788720  0.132254  1
  Si  Si172  1  0.820282  0.709335  0.868711  1
  Si  Si173  1  0.871120  0.808382  0.103961  1
  Si  Si174  1  0.887016  0.809592  0.725755  1
  Si  Si175  1  0.993536  0.888186  0.121222  1
  O  O176  1  0.936890  0.834623  0.124745  1
  Si  Si177  1  0.801126  0.999436  0.063467  1
  O  O178  1  0.953080  0.837509  0.786912  1
  O  O179  1  0.778077  0.999698  0.554603  1
  O  O180  1  0.692626  0.900162  0.769304  1
  O  O181  1  0.808241  0.598345  0.230497  1
  O  O182  1  0.852491  0.763907  0.204516  1
  O  O183  1  0.682543  0.772845  0.615808  1
  O  O184  1  0.819338  0.725087  0.384874  1
  O  O185  1  0.757108  0.752155  0.813934  1
  O  O186  1  0.744053  0.746579  0.187194  1
  O  O187  1  0.688768  0.902367  0.467451  1
  O  O188  1  0.811126  0.597696  0.533344  1
  O  O189  1  0.749782  0.750252  0.496926  1
  O  O190  1  0.862062  0.759135  0.604861  1
  O  O191  1  0.845695  0.740439  0.997458  1
  O  O192  1  0.683648  0.901442  0.149814  1
  O  O193  1  0.816836  0.596590  0.851215  1
  O  O194  1  0.862386  0.750661  0.807627  1
  O  O195  1  0.723750  0.500850  0.239903  1
  O  O196  1  0.838157  0.906319  0.070633  1
  O  O197  1  0.854599  0.907711  0.712916  1
  O  O198  1  0.771487  0.999350  0.159576  1
  O  O199  1  0.730364  0.999573  0.332722  1
  O  O200  1  0.751828  0.999429  0.943371  1
  Si  Si201  1  0.715484  0.999176  0.198807  1
  Si  Si202  1  0.816604  0.999764  0.684023  1
  Si  Si203  1  0.724165  0.999513  0.809658  1
  Si  Si204  1  0.719030  0.999886  0.451223  1
