# generated using pymatgen
data_SiO2
_symmetry_space_group_name_H-M   'P 1'
_cell_length_a   18.31119740
_cell_length_b   18.30939725
_cell_length_c   5.10321483
_cell_angle_alpha   90.00000000
_cell_angle_beta   90.00000000
_cell_angle_gamma   90.00000000
_symmetry_Int_Tables_number   1
_chemical_formula_structural   SiO2
_chemical_formula_sum   'Si32 O64'
_cell_volume   1710.9394621
_cell_formula_units_Z   32
loop_
 _symmetry_equiv_pos_site_id
 _symmetry_equiv_pos_as_xyz
  1  'x, y, z'
loop_
 _atom_site_type_symbol
 _atom_site_label
 _atom_site_symmetry_multiplicity
 _atom_site_fract_x
 _atom_site_fract_y
 _atom_site_fract_z
 _atom_site_occupancy
  O  O1  1  0.202847  0.202694  0.495038  1
  O  O2  1  0.702838  0.702663  0.997154  1
  O  O3  1  0.797210  0.202601  0.498334  1
  O  O4  1  0.297295  0.702764  0.995758  1
  O  O5  1  0.797318  0.797107  0.498138  1
  O  O6  1  0.297238  0.297209  0.995478  1
  O  O7  1  0.202800  0.797198  0.496249  1
  O  O8  1  0.702830  0.297057  0.998242  1
  O  O9  1  0.320137  0.181651  0.739999  1
  O  O10  1  0.819103  0.680480  0.248398  1
  O  O11  1  0.820279  0.317939  0.755133  1
  O  O12  1  0.319316  0.819142  0.247533  1
  O  O13  1  0.680973  0.819376  0.748697  1
  O  O14  1  0.181152  0.319535  0.248022  1
  O  O15  1  0.181218  0.680291  0.742778  1
  O  O16  1  0.681297  0.180174  0.244203  1
  O  O17  1  0.680246  0.181101  0.744212  1
  O  O18  1  0.180483  0.681169  0.242757  1
  O  O19  1  0.180394  0.318768  0.748009  1
  O  O20  1  0.680751  0.818885  0.248707  1
  O  O21  1  0.319173  0.819337  0.747520  1
  O  O22  1  0.818202  0.320060  0.255140  1
  O  O23  1  0.819508  0.680805  0.748409  1
  O  O24  1  0.318461  0.179876  0.239995  1
  O  O25  1  0.258455  0.072823  0.497175  1
  O  O26  1  0.758397  0.572740  0.996317  1
  O  O27  1  0.927167  0.258188  0.497862  1
  O  O28  1  0.427187  0.758432  0.997798  1
  O  O29  1  0.741751  0.927027  0.496687  1
  O  O30  1  0.241552  0.427111  0.996402  1
  O  O31  1  0.072912  0.741556  0.494939  1
  O  O32  1  0.572878  0.241626  0.997627  1
  O  O33  1  0.741674  0.072698  0.496120  1
  O  O34  1  0.241740  0.572831  0.996119  1
  O  O35  1  0.072903  0.258201  0.495146  1
  O  O36  1  0.572923  0.758337  0.997938  1
  O  O37  1  0.258388  0.927145  0.498257  1
  O  O38  1  0.758491  0.426973  0.997354  1
  O  O39  1  0.927217  0.741553  0.497026  1
  O  O40  1  0.427173  0.241716  0.996838  1
  O  O41  1  0.155482  0.999708  0.302350  1
  O  O42  1  0.655669  0.499470  0.800208  1
  O  O43  1  0.999613  0.155271  0.301347  1
  O  O44  1  0.499998  0.655637  0.801470  1
  O  O45  1  0.823881  0.999567  0.193958  1
  O  O46  1  0.344456  0.499567  0.800289  1
  O  O47  1  0.999522  0.823761  0.194295  1
  O  O48  1  0.500174  0.323679  0.694577  1
  O  O49  1  0.844705  0.000104  0.690899  1
  O  O50  1  0.324037  0.500026  0.297214  1
  O  O51  1  0.000446  0.844509  0.691310  1
  O  O52  1  0.500006  0.344750  0.191668  1
  O  O53  1  0.176193  0.000349  0.799366  1
  O  O54  1  0.676019  0.500109  0.297166  1
  O  O55  1  0.000668  0.176008  0.798317  1
  O  O56  1  0.499995  0.675922  0.298348  1
  O  O57  1  0.068729  0.068538  0.000835  1
  O  O58  1  0.569130  0.568924  0.500584  1
  O  O59  1  0.930385  0.069569  0.995781  1
  O  O60  1  0.430966  0.568868  0.500364  1
  O  O61  1  0.931385  0.931230  0.992414  1
  O  O62  1  0.430784  0.430504  0.496853  1
  O  O63  1  0.069744  0.930208  0.997121  1
  O  O64  1  0.569290  0.430569  0.496442  1
  Si  Si65  1  0.275853  0.156905  0.493010  1
  Si  Si66  1  0.775821  0.656830  0.997751  1
  Si  Si67  1  0.843072  0.275558  0.501514  1
  Si  Si68  1  0.343084  0.775778  0.997181  1
  Si  Si69  1  0.724342  0.842944  0.498077  1
  Si  Si70  1  0.224228  0.342997  0.996713  1
  Si  Si71  1  0.157009  0.724189  0.494155  1
  Si  Si72  1  0.656948  0.224115  0.995949  1
  Si  Si73  1  0.724226  0.156785  0.495908  1
  Si  Si74  1  0.224329  0.656912  0.994207  1
  Si  Si75  1  0.156983  0.275659  0.496641  1
  Si  Si76  1  0.657028  0.775664  0.998091  1
  Si  Si77  1  0.275765  0.843054  0.497238  1
  Si  Si78  1  0.775819  0.342860  0.001484  1
  Si  Si79  1  0.843136  0.724115  0.497800  1
  Si  Si80  1  0.343100  0.224245  0.992978  1
  Si  Si81  1  0.118856  0.999666  0.025682  1
  Si  Si82  1  0.618854  0.499697  0.523936  1
  Si  Si83  1  0.999834  0.118669  0.024660  1
  Si  Si84  1  0.500023  0.618787  0.525270  1
  Si  Si85  1  0.881257  0.000112  0.967681  1
  Si  Si86  1  0.381229  0.499659  0.523951  1
  Si  Si87  1  0.000288  0.881115  0.968027  1
  Si  Si88  1  0.500056  0.381178  0.468721  1
  Si  Si89  1  0.214026  0.000021  0.525178  1
  Si  Si90  1  0.714069  0.499850  0.023426  1
  Si  Si91  1  0.000082  0.213838  0.524088  1
  Si  Si92  1  0.500025  0.714014  0.024670  1
  Si  Si93  1  0.786097  0.999868  0.468303  1
  Si  Si94  1  0.286023  0.499927  0.023378  1
  Si  Si95  1  0.000031  0.785943  0.468529  1
  Si  Si96  1  0.500064  0.286048  0.969202  1
