# generated using pymatgen
data_SiO2
_symmetry_space_group_name_H-M   'P 1'
_cell_length_a   14.33040949
_cell_length_b   8.45279806
_cell_length_c   19.02517371
_cell_angle_alpha   90.00000000
_cell_angle_beta   90.00000000
_cell_angle_gamma   90.00000000
_symmetry_Int_Tables_number   1
_chemical_formula_structural   SiO2
_chemical_formula_sum   'Si36 O72'
_cell_volume   2304.55843536
_cell_formula_units_Z   36
loop_
 _symmetry_equiv_pos_site_id
 _symmetry_equiv_pos_as_xyz
  1  'x, y, z'
loop_
 _atom_site_type_symbol
 _atom_site_label
 _atom_site_symmetry_multiplicity
 _atom_site_fract_x
 _atom_site_fract_y
 _atom_site_fract_z
 _atom_site_occupancy
  O  O1  1  0.559447  0.721511  0.599773  1
  O  O2  1  0.940980  0.778090  0.101059  1
  O  O3  1  0.440654  0.721726  0.900053  1
  O  O4  1  0.056819  0.779517  0.399057  1
  O  O5  1  0.444403  0.279919  0.400816  1
  O  O6  1  0.057276  0.220088  0.901038  1
  O  O7  1  0.556913  0.276216  0.098717  1
  O  O8  1  0.945364  0.227813  0.599499  1
  O  O9  1  0.403455  0.608130  0.553271  1
  O  O10  1  0.096932  0.893313  0.053966  1
  O  O11  1  0.596296  0.604967  0.946945  1
  O  O12  1  0.901480  0.895789  0.446640  1
  O  O13  1  0.599238  0.392453  0.448459  1
  O  O14  1  0.902793  0.105934  0.949693  1
  O  O15  1  0.402866  0.391852  0.050511  1
  O  O16  1  0.095488  0.107752  0.551150  1
  O  O17  1  0.289795  0.497545  0.460133  1
  O  O18  1  0.212235  0.995291  0.958603  1
  O  O19  1  0.712846  0.501843  0.041014  1
  O  O20  1  0.783114  0.989928  0.540333  1
  O  O21  1  0.714819  0.495230  0.542086  1
  O  O22  1  0.784289  0.011299  0.043856  1
  O  O23  1  0.286032  0.496051  0.958847  1
  O  O24  1  0.214349  0.003684  0.459241  1
  O  O25  1  0.281115  0.305074  0.358812  1
  O  O26  1  0.217231  0.191689  0.860211  1
  O  O27  1  0.719484  0.298395  0.137421  1
  O  O28  1  0.782686  0.194482  0.636864  1
  O  O29  1  0.725012  0.700899  0.639129  1
  O  O30  1  0.776492  0.807219  0.141158  1
  O  O31  1  0.276341  0.693365  0.859835  1
  O  O32  1  0.220495  0.809893  0.358939  1
  O  O33  1  0.584357  0.765686  0.720401  1
  O  O34  1  0.916143  0.734441  0.220705  1
  O  O35  1  0.415410  0.765418  0.779541  1
  O  O36  1  0.086228  0.731242  0.278156  1
  O  O37  1  0.417015  0.226093  0.278212  1
  O  O38  1  0.084251  0.274266  0.777422  1
  O  O39  1  0.583309  0.224282  0.222189  1
  O  O40  1  0.917617  0.272342  0.721778  1
  O  O41  1  0.469805  0.566370  0.683195  1
  O  O42  1  0.033298  0.935576  0.183944  1
  O  O43  1  0.530315  0.566248  0.816818  1
  O  O44  1  0.970556  0.937052  0.317264  1
  O  O45  1  0.530457  0.426383  0.317950  1
  O  O46  1  0.972361  0.071559  0.818507  1
  O  O47  1  0.471718  0.425801  0.181547  1
  O  O48  1  0.030999  0.070606  0.682781  1
  O  O49  1  0.454071  0.561645  0.429676  1
  O  O50  1  0.045387  0.932224  0.929487  1
  O  O51  1  0.546016  0.564831  0.071377  1
  O  O52  1  0.949711  0.942553  0.572453  1
  O  O53  1  0.548677  0.437701  0.572558  1
  O  O54  1  0.952134  0.061290  0.073878  1
  O  O55  1  0.450959  0.438419  0.927118  1
  O  O56  1  0.049513  0.062657  0.427376  1
  O  O57  1  0.656650  0.978347  0.630580  1
  O  O58  1  0.840285  0.524496  0.131388  1
  O  O59  1  0.340820  0.974888  0.869553  1
  O  O60  1  0.162080  0.527957  0.372122  1
  O  O61  1  0.342353  0.027187  0.372776  1
  O  O62  1  0.156973  0.471581  0.871641  1
  O  O63  1  0.651672  0.019389  0.130351  1
  O  O64  1  0.843711  0.476182  0.629223  1
  O  O65  1  0.161157  0.288397  0.454880  1
  O  O66  1  0.338689  0.211325  0.953121  1
  O  O67  1  0.844346  0.294212  0.044905  1
  O  O68  1  0.657737  0.207500  0.543953  1
  O  O69  1  0.843280  0.709620  0.542629  1
  O  O70  1  0.660510  0.784854  0.044868  1
  O  O71  1  0.159781  0.712756  0.955344  1
  O  O72  1  0.338437  0.783626  0.454536  1
  Si  Si73  1  0.637979  0.804331  0.647954  1
  Si  Si74  1  0.861280  0.697588  0.148533  1
  Si  Si75  1  0.361307  0.802244  0.851773  1
  Si  Si76  1  0.135358  0.701557  0.350087  1
  Si  Si77  1  0.367901  0.200803  0.350579  1
  Si  Si78  1  0.130478  0.300713  0.849869  1
  Si  Si79  1  0.630382  0.191023  0.149839  1
  Si  Si80  1  0.870847  0.302512  0.649421  1
  Si  Si81  1  0.486620  0.576789  0.602047  1
  Si  Si82  1  0.014582  0.921885  0.103528  1
  Si  Si83  1  0.513355  0.576592  0.897921  1
  Si  Si84  1  0.984967  0.925559  0.398360  1
  Si  Si85  1  0.515792  0.424320  0.400584  1
  Si  Si86  1  0.987516  0.072024  0.902826  1
  Si  Si87  1  0.487300  0.425620  0.097673  1
  Si  Si88  1  0.011917  0.081022  0.602442  1
  Si  Si89  1  0.222540  0.398864  0.411453  1
  Si  Si90  1  0.280013  0.091119  0.910063  1
  Si  Si91  1  0.782971  0.405553  0.088650  1
  Si  Si92  1  0.716538  0.094054  0.587968  1
  Si  Si93  1  0.782759  0.600876  0.588089  1
  Si  Si94  1  0.717095  0.907064  0.090680  1
  Si  Si95  1  0.219018  0.593696  0.911065  1
  Si  Si96  1  0.279631  0.902896  0.411361  1
  Si  Si97  1  0.370684  0.616061  0.476749  1
  Si  Si98  1  0.127138  0.883964  0.976768  1
  Si  Si99  1  0.627448  0.613476  0.023932  1
  Si  Si100  1  0.869282  0.879608  0.523049  1
  Si  Si101  1  0.632041  0.377596  0.525098  1
  Si  Si102  1  0.869327  0.123097  0.026003  1
  Si  Si103  1  0.368361  0.381063  0.974596  1
  Si  Si104  1  0.133018  0.120799  0.474446  1
  Si  Si105  1  0.004472  0.840393  0.251473  1
  Si  Si106  1  0.499914  0.661061  0.750106  1
  Si  Si107  1  0.002120  0.171082  0.748421  1
  Si  Si108  1  0.500555  0.326962  0.250223  1
