# generated using pymatgen
data_SiO2
_symmetry_space_group_name_H-M   'P 1'
_cell_length_a   9.73031253
_cell_length_b   14.00964348
_cell_length_c   14.04245113
_cell_angle_alpha   90.00000000
_cell_angle_beta   90.00000000
_cell_angle_gamma   90.00000000
_symmetry_Int_Tables_number   1
_chemical_formula_structural   SiO2
_chemical_formula_sum   'Si32 O64'
_cell_volume   1914.24179319
_cell_formula_units_Z   32
loop_
 _symmetry_equiv_pos_site_id
 _symmetry_equiv_pos_as_xyz
  1  'x, y, z'
loop_
 _atom_site_type_symbol
 _atom_site_label
 _atom_site_symmetry_multiplicity
 _atom_site_fract_x
 _atom_site_fract_y
 _atom_site_fract_z
 _atom_site_occupancy
  O  O1  1  0.000033  0.115305  0.958949  1
  O  O2  1  0.500172  0.615308  0.958916  1
  O  O3  1  0.000058  0.884436  0.458916  1
  O  O4  1  0.500104  0.384440  0.458949  1
  O  O5  1  0.000156  0.884429  0.041156  1
  O  O6  1  0.500016  0.384438  0.041138  1
  O  O7  1  0.000121  0.115307  0.541138  1
  O  O8  1  0.500075  0.615316  0.541156  1
  O  O9  1  0.177661  0.169108  0.078586  1
  O  O10  1  0.677765  0.669031  0.078617  1
  O  O11  1  0.822424  0.169038  0.078630  1
  O  O12  1  0.322526  0.669083  0.078554  1
  O  O13  1  0.177704  0.830686  0.578554  1
  O  O14  1  0.677714  0.330683  0.578630  1
  O  O15  1  0.822465  0.830690  0.578617  1
  O  O16  1  0.322476  0.330661  0.578586  1
  O  O17  1  0.822526  0.830647  0.921510  1
  O  O18  1  0.322425  0.330693  0.921448  1
  O  O19  1  0.177764  0.830718  0.921463  1
  O  O20  1  0.677660  0.330640  0.921509  1
  O  O21  1  0.822478  0.169080  0.421509  1
  O  O22  1  0.322465  0.669051  0.421463  1
  O  O23  1  0.177713  0.169076  0.421448  1
  O  O24  1  0.677704  0.669073  0.421510  1
  O  O25  1  0.192348  0.999904  0.000050  1
  O  O26  1  0.692349  0.499835  0.000056  1
  O  O27  1  0.807840  0.999837  0.000073  1
  O  O28  1  0.307839  0.499904  0.999978  1
  O  O29  1  0.192345  0.999868  0.499976  1
  O  O30  1  0.692344  0.499881  0.500074  1
  O  O31  1  0.807835  0.999883  0.500058  1
  O  O32  1  0.307836  0.499867  0.500048  1
  O  O33  1  0.249105  0.156857  0.904654  1
  O  O34  1  0.749298  0.656795  0.904696  1
  O  O35  1  0.750917  0.156793  0.904705  1
  O  O36  1  0.251109  0.656887  0.904617  1
  O  O37  1  0.249144  0.842886  0.404621  1
  O  O38  1  0.749198  0.342922  0.404700  1
  O  O39  1  0.750954  0.842921  0.404691  1
  O  O40  1  0.251010  0.342916  0.404658  1
  O  O41  1  0.751083  0.842866  0.095442  1
  O  O42  1  0.250890  0.342963  0.095367  1
  O  O43  1  0.249272  0.842930  0.095389  1
  O  O44  1  0.749081  0.342870  0.095444  1
  O  O45  1  0.751034  0.156845  0.595440  1
  O  O46  1  0.250980  0.656844  0.595393  1
  O  O47  1  0.249225  0.156811  0.595372  1
  O  O48  1  0.749169  0.656850  0.595438  1
  O  O49  1  0.187680  0.246444  0.250016  1
  O  O50  1  0.687726  0.746376  0.250065  1
  O  O51  1  0.812448  0.246391  0.250070  1
  O  O52  1  0.312508  0.746378  0.250008  1
  O  O53  1  0.187729  0.753395  0.750008  1
  O  O54  1  0.687683  0.253326  0.750070  1
  O  O55  1  0.812511  0.753341  0.750065  1
  O  O56  1  0.312451  0.253328  0.750016  1
  O  O57  1  0.000012  0.287435  0.131247  1
  O  O58  1  0.500160  0.787410  0.131242  1
  O  O59  1  0.000088  0.712334  0.631242  1
  O  O60  1  0.500108  0.212309  0.631247  1
  O  O61  1  0.000176  0.712329  0.868829  1
  O  O62  1  0.500028  0.212305  0.868838  1
  O  O63  1  0.000092  0.287440  0.368838  1
  O  O64  1  0.500072  0.787415  0.368829  1
  Si  Si65  1  0.158087  0.108800  0.984232  1
  Si  Si66  1  0.658208  0.608749  0.984243  1
  Si  Si67  1  0.841993  0.108749  0.984261  1
  Si  Si68  1  0.342113  0.608801  0.984185  1
  Si  Si69  1  0.158116  0.890964  0.484183  1
  Si  Si70  1  0.658146  0.390975  0.484263  1
  Si  Si71  1  0.842022  0.890976  0.484245  1
  Si  Si72  1  0.342052  0.390965  0.484230  1
  Si  Si73  1  0.842101  0.890939  0.015874  1
  Si  Si74  1  0.341980  0.390993  0.015810  1
  Si  Si75  1  0.158195  0.890989  0.015843  1
  Si  Si76  1  0.658075  0.390940  0.015867  1
  Si  Si77  1  0.842064  0.108784  0.515869  1
  Si  Si78  1  0.342034  0.608776  0.515841  1
  Si  Si79  1  0.158158  0.108772  0.515808  1
  Si  Si80  1  0.658128  0.608785  0.515876  1
  Si  Si81  1  0.157954  0.262512  0.140435  1
  Si  Si82  1  0.658080  0.762434  0.140473  1
  Si  Si83  1  0.842095  0.262447  0.140479  1
  Si  Si84  1  0.342221  0.762471  0.140429  1
  Si  Si85  1  0.158019  0.737297  0.640429  1
  Si  Si86  1  0.658032  0.237274  0.640478  1
  Si  Si87  1  0.842160  0.737288  0.640473  1
  Si  Si88  1  0.342173  0.237256  0.640436  1
  Si  Si89  1  0.842233  0.737255  0.859644  1
  Si  Si90  1  0.342107  0.237280  0.859607  1
  Si  Si91  1  0.158092  0.737320  0.859598  1
  Si  Si92  1  0.657966  0.237242  0.859649  1
  Si  Si93  1  0.842161  0.262479  0.359649  1
  Si  Si94  1  0.342148  0.762449  0.359599  1
  Si  Si95  1  0.158020  0.262488  0.359607  1
  Si  Si96  1  0.658007  0.762467  0.359643  1
