# generated using pymatgen
data_SiO2
_symmetry_space_group_name_H-M   'P 1'
_cell_length_a   8.31855047
_cell_length_b   22.30671221
_cell_length_c   38.25171453
_cell_angle_alpha   90.00000000
_cell_angle_beta   90.00000000
_cell_angle_gamma   90.00000000
_symmetry_Int_Tables_number   1
_chemical_formula_structural   SiO2
_chemical_formula_sum   'Si144 O288'
_cell_volume   7097.96946134
_cell_formula_units_Z   144
loop_
 _symmetry_equiv_pos_site_id
 _symmetry_equiv_pos_as_xyz
  1  'x, y, z'
loop_
 _atom_site_type_symbol
 _atom_site_label
 _atom_site_symmetry_multiplicity
 _atom_site_fract_x
 _atom_site_fract_y
 _atom_site_fract_z
 _atom_site_occupancy
  Si  Si1  1  0.187505  0.115023  0.050289  1
  Si  Si2  1  0.187508  0.884744  0.949742  1
  Si  Si3  1  0.187399  0.383952  0.551182  1
  Si  Si4  1  0.187400  0.615601  0.449848  1
  Si  Si5  1  0.812700  0.884750  0.949745  1
  Si  Si6  1  0.812703  0.115019  0.050287  1
  Si  Si7  1  0.812798  0.615604  0.449851  1
  Si  Si8  1  0.812799  0.383950  0.551179  1
  Si  Si9  1  0.687310  0.616219  0.051118  1
  Si  Si10  1  0.687310  0.383570  0.948925  1
  Si  Si11  1  0.687397  0.884082  0.551302  1
  Si  Si12  1  0.687420  0.115473  0.449757  1
  Si  Si13  1  0.312885  0.383570  0.948927  1
  Si  Si14  1  0.312888  0.616221  0.051116  1
  Si  Si15  1  0.312790  0.115476  0.449757  1
  Si  Si16  1  0.312814  0.884083  0.551301  1
  Si  Si17  1  0.187484  0.055214  0.149374  1
  Si  Si18  1  0.187503  0.944606  0.850680  1
  Si  Si19  1  0.187476  0.444100  0.649552  1
  Si  Si20  1  0.187474  0.555827  0.350563  1
  Si  Si21  1  0.812696  0.944607  0.850677  1
  Si  Si22  1  0.812719  0.055213  0.149375  1
  Si  Si23  1  0.812737  0.555836  0.350564  1
  Si  Si24  1  0.812746  0.444079  0.649547  1
  Si  Si25  1  0.687426  0.556415  0.149808  1
  Si  Si26  1  0.687447  0.443395  0.850229  1
  Si  Si27  1  0.687418  0.944116  0.649691  1
  Si  Si28  1  0.687421  0.055757  0.350463  1
  Si  Si29  1  0.312768  0.443387  0.850236  1
  Si  Si30  1  0.312781  0.556417  0.149806  1
  Si  Si31  1  0.312784  0.055757  0.350462  1
  Si  Si32  1  0.312782  0.944119  0.649692  1
  Si  Si33  1  0.186376  0.313852  0.012712  1
  Si  Si34  1  0.186375  0.685920  0.987325  1
  Si  Si35  1  0.186124  0.189385  0.511739  1
  Si  Si36  1  0.186457  0.813598  0.487791  1
  Si  Si37  1  0.813835  0.685920  0.987329  1
  Si  Si38  1  0.813834  0.313853  0.012709  1
  Si  Si39  1  0.813744  0.813600  0.487791  1
  Si  Si40  1  0.814077  0.189385  0.511739  1
  Si  Si41  1  0.686106  0.809957  0.011391  1
  Si  Si42  1  0.686109  0.189816  0.988642  1
  Si  Si43  1  0.686117  0.689530  0.511826  1
  Si  Si44  1  0.686448  0.313443  0.487676  1
  Si  Si45  1  0.314090  0.189816  0.988641  1
  Si  Si46  1  0.314090  0.809958  0.011391  1
  Si  Si47  1  0.313753  0.313444  0.487679  1
  Si  Si48  1  0.314087  0.689527  0.511823  1
  Si  Si49  1  0.313238  0.172803  0.118204  1
  Si  Si50  1  0.313228  0.826989  0.881815  1
  Si  Si51  1  0.313258  0.325886  0.619020  1
  Si  Si52  1  0.313269  0.673306  0.381863  1
  Si  Si53  1  0.686979  0.826994  0.881819  1
  Si  Si54  1  0.686971  0.172800  0.118202  1
  Si  Si55  1  0.686935  0.673313  0.381868  1
  Si  Si56  1  0.686936  0.325870  0.619010  1
  Si  Si57  1  0.813325  0.674375  0.118957  1
  Si  Si58  1  0.813316  0.325432  0.881078  1
  Si  Si59  1  0.813273  0.825934  0.619108  1
  Si  Si60  1  0.813268  0.173224  0.381789  1
  Si  Si61  1  0.186883  0.325424  0.881082  1
  Si  Si62  1  0.186882  0.674378  0.118956  1
  Si  Si63  1  0.186947  0.173225  0.381788  1
  Si  Si64  1  0.186941  0.825936  0.619108  1
  Si  Si65  1  0.186861  0.353466  0.287823  1
  Si  Si66  1  0.187014  0.646531  0.712135  1
  Si  Si67  1  0.187067  0.146846  0.787835  1
  Si  Si68  1  0.187060  0.853063  0.212163  1
  Si  Si69  1  0.813137  0.646515  0.712135  1
  Si  Si70  1  0.813318  0.353474  0.287824  1
  Si  Si71  1  0.813144  0.853061  0.212160  1
  Si  Si72  1  0.813129  0.146852  0.787839  1
  Si  Si73  1  0.686832  0.853753  0.287895  1
  Si  Si74  1  0.686995  0.146267  0.712077  1
  Si  Si75  1  0.686859  0.646052  0.787889  1
  Si  Si76  1  0.686840  0.353870  0.212100  1
  Si  Si77  1  0.313209  0.146267  0.712074  1
  Si  Si78  1  0.313374  0.853751  0.287898  1
  Si  Si79  1  0.313369  0.353879  0.212102  1
  Si  Si80  1  0.313352  0.646030  0.787884  1
  Si  Si81  1  0.187638  0.483590  0.212427  1
  Si  Si82  1  0.187646  0.516335  0.787670  1
  Si  Si83  1  0.187680  0.016500  0.712491  1
  Si  Si84  1  0.187649  0.983459  0.287628  1
  Si  Si85  1  0.812547  0.516355  0.787665  1
  Si  Si86  1  0.812565  0.483582  0.212428  1
  Si  Si87  1  0.812558  0.983461  0.287628  1
  Si  Si88  1  0.812518  0.016499  0.712489  1
  Si  Si89  1  0.687667  0.982832  0.212181  1
  Si  Si90  1  0.687689  0.017104  0.787921  1
  Si  Si91  1  0.687682  0.516762  0.712220  1
  Si  Si92  1  0.687641  0.483169  0.287885  1
  Si  Si93  1  0.312518  0.017099  0.787923  1
  Si  Si94  1  0.312537  0.982833  0.212181  1
  Si  Si95  1  0.312561  0.483158  0.287884  1
  Si  Si96  1  0.312523  0.516784  0.712228  1
  Si  Si97  1  0.186289  0.296003  0.144237  1
  Si  Si98  1  0.186292  0.703786  0.855788  1
  Si  Si99  1  0.186248  0.202113  0.643684  1
  Si  Si100  1  0.186237  0.796470  0.355915  1
  Si  Si101  1  0.813929  0.703789  0.855800  1
  Si  Si102  1  0.813921  0.296002  0.144232  1
  Si  Si103  1  0.813970  0.796473  0.355913  1
  Si  Si104  1  0.813961  0.202104  0.643685  1
  Si  Si105  1  0.686203  0.798132  0.143510  1
  Si  Si106  1  0.686201  0.201679  0.856520  1
  Si  Si107  1  0.686226  0.702111  0.643675  1
  Si  Si108  1  0.686240  0.296441  0.355919  1
  Si  Si109  1  0.314000  0.201677  0.856515  1
  Si  Si110  1  0.314004  0.798133  0.143513  1
  Si  Si111  1  0.313957  0.296444  0.355919  1
  Si  Si112  1  0.313962  0.702110  0.643673  1
  Si  Si113  1  0.313953  0.368240  0.081198  1
  Si  Si114  1  0.313956  0.631556  0.918831  1
  Si  Si115  1  0.313561  0.132386  0.579715  1
  Si  Si116  1  0.313866  0.867870  0.419273  1
  Si  Si117  1  0.686250  0.631550  0.918838  1
  Si  Si118  1  0.686253  0.368242  0.081195  1
  Si  Si119  1  0.686334  0.867868  0.419271  1
  Si  Si120  1  0.686636  0.132387  0.579715  1
  Si  Si121  1  0.813580  0.867144  0.079277  1
  Si  Si122  1  0.813576  0.132648  0.920750  1
  Si  Si123  1  0.813566  0.632320  0.579733  1
  Si  Si124  1  0.813879  0.367965  0.419237  1
  Si  Si125  1  0.186633  0.132650  0.920747  1
  Si  Si126  1  0.186628  0.867142  0.079278  1
  Si  Si127  1  0.186327  0.367966  0.419239  1
  Si  Si128  1  0.186641  0.632316  0.579730  1
  Si  Si129  1  0.187626  0.498183  0.082509  1
  Si  Si130  1  0.187629  0.501610  0.917538  1
  Si  Si131  1  0.187592  0.002407  0.582392  1
  Si  Si132  1  0.187661  0.997762  0.417831  1
  Si  Si133  1  0.812579  0.501606  0.917535  1
  Si  Si134  1  0.812582  0.498184  0.082510  1
  Si  Si135  1  0.812542  0.997759  0.417830  1
  Si  Si136  1  0.812608  0.002408  0.582392  1
  Si  Si137  1  0.687646  0.997069  0.082023  1
  Si  Si138  1  0.687650  0.002720  0.918038  1
  Si  Si139  1  0.687613  0.502316  0.582232  1
  Si  Si140  1  0.687676  0.497873  0.417945  1
  Si  Si141  1  0.312551  0.002721  0.918040  1
  Si  Si142  1  0.312556  0.997069  0.082023  1
  Si  Si143  1  0.312544  0.497871  0.417945  1
  Si  Si144  1  0.312614  0.502316  0.582231  1
  O  O145  1  0.248124  0.049535  0.058296  1
  O  O146  1  0.248031  0.950253  0.941755  1
  O  O147  1  0.245822  0.449927  0.558710  1
  O  O148  1  0.244744  0.549719  0.441728  1
  O  O149  1  0.752175  0.950257  0.941757  1
  O  O150  1  0.752083  0.049532  0.058294  1
  O  O151  1  0.755462  0.549721  0.441730  1
  O  O152  1  0.754385  0.449925  0.558709  1
  O  O153  1  0.743351  0.550022  0.058889  1
  O  O154  1  0.743337  0.449771  0.941158  1
  O  O155  1  0.746011  0.950022  0.558847  1
  O  O156  1  0.744992  0.049637  0.441618  1
  O  O157  1  0.256864  0.449773  0.941161  1
  O  O158  1  0.256850  0.550023  0.058888  1
  O  O159  1  0.255207  0.049641  0.441617  1
  O  O160  1  0.254190  0.950020  0.558847  1
  O  O161  1  0.262642  0.140893  0.015836  1
  O  O162  1  0.262602  0.858880  0.984199  1
  O  O163  1  0.253722  0.359482  0.515639  1
  O  O164  1  0.263200  0.640835  0.484415  1
  O  O165  1  0.737601  0.858882  0.984201  1
  O  O166  1  0.737559  0.140892  0.015836  1
  O  O167  1  0.737011  0.640833  0.484421  1
  O  O168  1  0.746486  0.359485  0.515633  1
  O  O169  1  0.755255  0.640077  0.015559  1
  O  O170  1  0.755260  0.359699  0.984481  1
  O  O171  1  0.753214  0.859624  0.515710  1
  O  O172  1  0.762949  0.140684  0.484358  1
  O  O173  1  0.244954  0.359701  0.984485  1
  O  O174  1  0.244959  0.640077  0.015555  1
  O  O175  1  0.237258  0.140687  0.484358  1
  O  O176  1  0.246994  0.859622  0.515710  1
  O  O177  1  0.244508  0.156247  0.081207  1
  O  O178  1  0.244670  0.843547  0.918826  1
  O  O179  1  0.254805  0.343110  0.581293  1
  O  O180  1  0.246294  0.656569  0.418978  1
  O  O181  1  0.755515  0.843561  0.918829  1
  O  O182  1  0.755691  0.156239  0.081206  1
  O  O183  1  0.753894  0.656579  0.418985  1
  O  O184  1  0.745379  0.343092  0.581282  1
  O  O185  1  0.754988  0.656966  0.081246  1
  O  O186  1  0.755041  0.342848  0.918792  1
  O  O187  1  0.755063  0.843213  0.581372  1
  O  O188  1  0.746456  0.156463  0.418914  1
  O  O189  1  0.245155  0.342840  0.918797  1
  O  O190  1  0.245219  0.656972  0.081244  1
  O  O191  1  0.253764  0.156466  0.418913  1
  O  O192  1  0.245150  0.843216  0.581371  1
  O  O193  1  0.000104  0.116459  0.048153  1
  O  O194  1  0.000104  0.883250  0.951851  1
  O  O195  1  0.000099  0.380473  0.551926  1
  O  O196  1  0.000100  0.618385  0.451872  1
  O  O197  1  0.500099  0.620500  0.051526  1
  O  O198  1  0.500098  0.379278  0.948512  1
  O  O199  1  0.500105  0.880668  0.552164  1
  O  O200  1  0.500105  0.118198  0.451723  1
  O  O201  1  0.261490  0.118978  0.142241  1
  O  O202  1  0.261402  0.880821  0.857794  1
  O  O203  1  0.259680  0.379994  0.642646  1
  O  O204  1  0.261946  0.619491  0.357769  1
  O  O205  1  0.738799  0.880822  0.857793  1
  O  O206  1  0.738715  0.118978  0.142241  1
  O  O207  1  0.738283  0.619500  0.357776  1
  O  O208  1  0.740574  0.379973  0.642631  1
  O  O209  1  0.760714  0.620312  0.142741  1
  O  O210  1  0.760661  0.379485  0.857290  1
  O  O211  1  0.759667  0.880016  0.642758  1
  O  O212  1  0.761851  0.119434  0.357679  1
  O  O213  1  0.239559  0.379479  0.857300  1
  O  O214  1  0.239497  0.620314  0.142738  1
  O  O215  1  0.238364  0.119436  0.357677  1
  O  O216  1  0.240541  0.880017  0.642760  1
  O  O217  1  0.257529  0.014017  0.119893  1
  O  O218  1  0.257576  0.985768  0.880171  1
  O  O219  1  0.259519  0.485106  0.620191  1
  O  O220  1  0.257129  0.514571  0.380061  1
  O  O221  1  0.742620  0.985769  0.880168  1
  O  O222  1  0.742672  0.014017  0.119893  1
  O  O223  1  0.743092  0.514577  0.380061  1
  O  O224  1  0.740716  0.485098  0.620190  1
  O  O225  1  0.758403  0.515152  0.120443  1
  O  O226  1  0.758421  0.484632  0.879604  1
  O  O227  1  0.759589  0.985186  0.620364  1
  O  O228  1  0.757383  0.014474  0.379924  1
  O  O229  1  0.241805  0.484631  0.879609  1
  O  O230  1  0.241810  0.515152  0.120441  1
  O  O231  1  0.242817  0.014477  0.379924  1
  O  O232  1  0.240606  0.985186  0.620365  1
  O  O233  1  0.240606  0.027703  0.185052  1
  O  O234  1  0.240848  0.972154  0.815033  1
  O  O235  1  0.240334  0.471718  0.685230  1
  O  O236  1  0.240037  0.528087  0.314908  1
  O  O237  1  0.759364  0.972155  0.815030  1
  O  O238  1  0.759599  0.027702  0.185052  1
  O  O239  1  0.760145  0.528105  0.314908  1
  O  O240  1  0.759816  0.471671  0.685228  1
  O  O241  1  0.739468  0.528571  0.185488  1
  O  O242  1  0.739648  0.471275  0.814574  1
  O  O243  1  0.739661  0.971667  0.685435  1
  O  O244  1  0.739306  0.028088  0.314737  1
  O  O245  1  0.260511  0.471249  0.814580  1
  O  O246  1  0.260720  0.528583  0.185487  1
  O  O247  1  0.260902  0.028087  0.314737  1
  O  O248  1  0.260549  0.971673  0.685436  1
  O  O249  1  0.000101  0.057215  0.145826  1
  O  O250  1  0.000099  0.942659  0.854202  1
  O  O251  1  0.000113  0.442909  0.645815  1
  O  O252  1  0.000106  0.558129  0.354125  1
  O  O253  1  0.500104  0.558211  0.146071  1
  O  O254  1  0.500109  0.441635  0.853945  1
  O  O255  1  0.500100  0.942899  0.645866  1
  O  O256  1  0.500103  0.058036  0.354143  1
  O  O257  1  0.235072  0.249999  0.000130  1
  O  O258  1  0.235036  0.749775  0.999912  1
  O  O259  1  0.264655  0.249657  0.500266  1
  O  O260  1  0.235421  0.749786  0.500365  1
  O  O261  1  0.765167  0.749775  0.999913  1
  O  O262  1  0.765135  0.249999  0.000130  1
  O  O263  1  0.764774  0.749789  0.500364  1
  O  O264  1  0.735546  0.249656  0.500265  1
  O  O265  1  0.000104  0.316698  0.016182  1
  O  O266  1  0.000104  0.683061  0.983854  1
  O  O267  1  0.000100  0.197148  0.511562  1
  O  O268  1  0.000100  0.816688  0.484819  1
  O  O269  1  0.500098  0.802089  0.010999  1
  O  O270  1  0.500099  0.197679  0.989014  1
  O  O271  1  0.500101  0.697358  0.511692  1
  O  O272  1  0.500100  0.316399  0.484594  1
  O  O273  1  0.263252  0.328876  0.049072  1
  O  O274  1  0.263263  0.670908  0.950964  1
  O  O275  1  0.243871  0.171044  0.549139  1
  O  O276  1  0.261411  0.828361  0.451207  1
  O  O277  1  0.736925  0.670899  0.950972  1
  O  O278  1  0.736947  0.328880  0.049067  1
  O  O279  1  0.738790  0.828361  0.451206  1
  O  O280  1  0.756327  0.171045  0.549139  1
  O  O281  1  0.742914  0.828264  0.048880  1
  O  O282  1  0.743018  0.171525  0.951159  1
  O  O283  1  0.743955  0.671113  0.549205  1
  O  O284  1  0.761773  0.328315  0.451140  1
  O  O285  1  0.257187  0.171528  0.951156  1
  O  O286  1  0.257284  0.828262  0.048880  1
  O  O287  1  0.238429  0.328318  0.451143  1
  O  O288  1  0.256254  0.671104  0.549202  1
  O  O289  1  0.238888  0.232480  0.131799  1
  O  O290  1  0.238737  0.767319  0.868242  1
  O  O291  1  0.231767  0.266671  0.631524  1
  O  O292  1  0.236999  0.732762  0.368423  1
  O  O293  1  0.761519  0.767321  0.868263  1
  O  O294  1  0.761349  0.232478  0.131791  1
  O  O295  1  0.763193  0.732768  0.368423  1
  O  O296  1  0.768411  0.266657  0.631522  1
  O  O297  1  0.730833  0.733455  0.131387  1
  O  O298  1  0.730767  0.266345  0.868676  1
  O  O299  1  0.731666  0.766683  0.631524  1
  O  O300  1  0.736984  0.232732  0.368429  1
  O  O301  1  0.269423  0.266342  0.868670  1
  O  O302  1  0.269366  0.733455  0.131393  1
  O  O303  1  0.263222  0.232736  0.368430  1
  O  O304  1  0.268548  0.766682  0.631517  1
  O  O305  1  0.500104  0.177495  0.115708  1
  O  O306  1  0.500103  0.822272  0.884269  1
  O  O307  1  0.500095  0.319309  0.618678  1
  O  O308  1  0.500101  0.678675  0.384012  1
  O  O309  1  0.000103  0.681385  0.118601  1
  O  O310  1  0.000098  0.318420  0.881417  1
  O  O311  1  0.000108  0.819332  0.618812  1
  O  O312  1  0.000107  0.178578  0.383902  1
  O  O313  1  0.251345  0.418165  0.295937  1
  O  O314  1  0.250506  0.581655  0.704167  1
  O  O315  1  0.249500  0.081867  0.795854  1
  O  O316  1  0.249964  0.918013  0.204223  1
  O  O317  1  0.749705  0.581632  0.704155  1
  O  O318  1  0.748859  0.418176  0.295939  1
  O  O319  1  0.750239  0.918012  0.204221  1
  O  O320  1  0.750696  0.081872  0.795857  1
  O  O321  1  0.753555  0.918223  0.295787  1
  O  O322  1  0.752485  0.081589  0.704319  1
  O  O323  1  0.752650  0.581478  0.795885  1
  O  O324  1  0.753173  0.418402  0.204178  1
  O  O325  1  0.247711  0.081589  0.704320  1
  O  O326  1  0.246650  0.918221  0.295788  1
  O  O327  1  0.247053  0.418413  0.204179  1
  O  O328  1  0.247595  0.581453  0.795886  1
  O  O329  1  0.251116  0.337272  0.250012  1
  O  O330  1  0.250231  0.662590  0.750040  1
  O  O331  1  0.251528  0.162863  0.750021  1
  O  O332  1  0.250679  0.836991  0.250043  1
  O  O333  1  0.749940  0.662591  0.750039  1
  O  O334  1  0.749066  0.337274  0.250014  1
  O  O335  1  0.749517  0.836991  0.250040  1
  O  O336  1  0.748663  0.162868  0.750025  1
  O  O337  1  0.241434  0.312500  0.319081  1
  O  O338  1  0.244637  0.687221  0.680982  1
  O  O339  1  0.244654  0.187219  0.819123  1
  O  O340  1  0.244941  0.812640  0.180923  1
  O  O341  1  0.755505  0.687212  0.680986  1
  O  O342  1  0.758749  0.312505  0.319081  1
  O  O343  1  0.755278  0.812637  0.180919  1
  O  O344  1  0.755567  0.187224  0.819130  1
  O  O345  1  0.741044  0.812691  0.319153  1
  O  O346  1  0.744357  0.187074  0.680949  1
  O  O347  1  0.741421  0.687215  0.819063  1
  O  O348  1  0.741669  0.312636  0.180981  1
  O  O349  1  0.255864  0.187078  0.680946  1
  O  O350  1  0.259176  0.812689  0.319157  1
  O  O351  1  0.258529  0.312645  0.180985  1
  O  O352  1  0.258749  0.687198  0.819050  1
  O  O353  1  0.000090  0.357540  0.286406  1
  O  O354  1  0.000077  0.643090  0.713097  1
  O  O355  1  0.000098  0.143845  0.786601  1
  O  O356  1  0.000102  0.856263  0.213193  1
  O  O357  1  0.500103  0.858632  0.286796  1
  O  O358  1  0.500102  0.142105  0.712708  1
  O  O359  1  0.500107  0.641511  0.786714  1
  O  O360  1  0.500105  0.358607  0.213074  1
  O  O361  1  0.250576  0.497268  0.250147  1
  O  O362  1  0.250476  0.502605  0.749951  1
  O  O363  1  0.250706  0.002668  0.750198  1
  O  O364  1  0.250830  0.997214  0.249922  1
  O  O365  1  0.749739  0.502613  0.749946  1
  O  O366  1  0.749626  0.497268  0.250146  1
  O  O367  1  0.749375  0.997214  0.249922  1
  O  O368  1  0.749491  0.002674  0.750196  1
  O  O369  1  0.000101  0.484015  0.210761  1
  O  O370  1  0.000096  0.516157  0.789352  1
  O  O371  1  0.000099  0.016287  0.710856  1
  O  O372  1  0.000104  0.984071  0.289252  1
  O  O373  1  0.500102  0.981929  0.210399  1
  O  O374  1  0.500104  0.018204  0.789666  1
  O  O375  1  0.500102  0.517430  0.710469  1
  O  O376  1  0.500101  0.482793  0.289685  1
  O  O377  1  0.240330  0.342096  0.115681  1
  O  O378  1  0.240287  0.657692  0.884349  1
  O  O379  1  0.251570  0.157094  0.615614  1
  O  O380  1  0.241257  0.842308  0.384535  1
  O  O381  1  0.759955  0.657690  0.884361  1
  O  O382  1  0.759900  0.342102  0.115678  1
  O  O383  1  0.758944  0.842310  0.384532  1
  O  O384  1  0.748636  0.157085  0.615615  1
  O  O385  1  0.752573  0.842873  0.115365  1
  O  O386  1  0.752384  0.156913  0.884673  1
  O  O387  1  0.751870  0.657047  0.615657  1
  O  O388  1  0.741493  0.342335  0.384505  1
  O  O389  1  0.247807  0.156913  0.884668  1
  O  O390  1  0.247628  0.842871  0.115367  1
  O  O391  1  0.258713  0.342339  0.384506  1
  O  O392  1  0.248343  0.657043  0.615654  1
  O  O393  1  0.000104  0.298491  0.146938  1
  O  O394  1  0.000109  0.701251  0.853044  1
  O  O395  1  0.000106  0.195646  0.644922  1
  O  O396  1  0.000104  0.799718  0.353160  1
  O  O397  1  0.500104  0.805059  0.144598  1
  O  O398  1  0.500101  0.194754  0.855361  1
  O  O399  1  0.500094  0.695571  0.644844  1
  O  O400  1  0.500099  0.299731  0.353241  1
  O  O401  1  0.255842  0.434168  0.074740  1
  O  O402  1  0.255869  0.565626  0.925294  1
  O  O403  1  0.260568  0.065627  0.574417  1
  O  O404  1  0.256406  0.933874  0.425782  1
  O  O405  1  0.744317  0.565617  0.925296  1
  O  O406  1  0.744354  0.434172  0.074738  1
  O  O407  1  0.743799  0.933871  0.425781  1
  O  O408  1  0.739632  0.065628  0.574417  1
  O  O409  1  0.760736  0.933920  0.073830  1
  O  O410  1  0.760738  0.065875  0.926215  1
  O  O411  1  0.760336  0.565606  0.574333  1
  O  O412  1  0.755882  0.433882  0.425834  1
  O  O413  1  0.239471  0.065878  0.926214  1
  O  O414  1  0.239471  0.933918  0.073832  1
  O  O415  1  0.244330  0.433883  0.425836  1
  O  O416  1  0.239874  0.565602  0.574331  1
  O  O417  1  0.500104  0.367501  0.085112  1
  O  O418  1  0.500107  0.632305  0.914908  1
  O  O419  1  0.500098  0.137008  0.579389  1
  O  O420  1  0.500100  0.866736  0.415706  1
  O  O421  1  0.000104  0.862405  0.078685  1
  O  O422  1  0.000104  0.137385  0.921298  1
  O  O423  1  0.000104  0.636832  0.579366  1
  O  O424  1  0.000103  0.367096  0.415657  1
  O  O425  1  0.000104  0.498304  0.080409  1
  O  O426  1  0.000104  0.501496  0.919639  1
  O  O427  1  0.000100  0.004317  0.580252  1
  O  O428  1  0.000102  0.997420  0.419650  1
  O  O429  1  0.500101  0.994702  0.080431  1
  O  O430  1  0.500100  0.005067  0.919648  1
  O  O431  1  0.500114  0.504138  0.580087  1
  O  O432  1  0.500110  0.497764  0.419738  1
