# generated using pymatgen
data_SiO2
_symmetry_space_group_name_H-M   'P 1'
_cell_length_a   20.03131762
_cell_length_b   13.93702836
_cell_length_c   12.36391025
_cell_angle_alpha   90.00000000
_cell_angle_beta   115.65100000
_cell_angle_gamma   90.00000000
_symmetry_Int_Tables_number   1
_chemical_formula_structural   SiO2
_chemical_formula_sum   'Si60 O120'
_cell_volume   3111.54447668
_cell_formula_units_Z   60
loop_
 _symmetry_equiv_pos_site_id
 _symmetry_equiv_pos_as_xyz
  1  'x, y, z'
loop_
 _atom_site_type_symbol
 _atom_site_label
 _atom_site_symmetry_multiplicity
 _atom_site_fract_x
 _atom_site_fract_y
 _atom_site_fract_z
 _atom_site_occupancy
  O  O1  1  0.302468  0.405469  0.730292  1
  O  O2  1  0.198090  0.094401  0.269483  1
  O  O3  1  0.128517  0.251355  0.274547  1
  O  O4  1  0.166080  0.213458  0.098478  1
  O  O5  1  0.238685  0.247411  0.696559  1
  O  O6  1  0.262054  0.252463  0.305462  1
  O  O7  1  0.111796  0.248266  0.868349  1
  O  O8  1  0.096654  0.406737  0.762149  1
  O  O9  1  0.105153  0.252514  0.660900  1
  O  O10  1  0.013625  0.287463  0.314832  1
  O  O11  1  0.315361  0.406748  0.047600  1
  O  O12  1  0.184648  0.092543  0.954247  1
  O  O13  1  0.249942  0.249350  0.997647  1
  Si  Si14  1  0.273293  0.499840  0.054697  1
  O  O15  1  0.166877  0.095335  0.630660  1
  O  O16  1  0.138491  0.243393  0.484456  1
  O  O17  1  0.121924  0.405335  0.380529  1
  O  O18  1  0.219168  0.499894  0.340234  1
  O  O19  1  0.265478  0.499888  0.175993  1
  O  O20  1  0.194423  0.499926  0.730038  1
  O  O21  1  0.219761  0.499914  0.544924  1
  Si  Si22  1  0.168612  0.499900  0.407551  1
  O  O23  1  0.197562  0.499874  0.937805  1
  Si  Si24  1  0.315488  0.296568  0.765828  1
  Si  Si25  1  0.185335  0.203536  0.235072  1
  Si  Si26  1  0.072776  0.298783  0.743276  1
  Si  Si27  1  0.324695  0.298938  0.020545  1
  Si  Si28  1  0.175707  0.200899  0.979980  1
  Si  Si29  1  0.159965  0.207978  0.615310  1
  Si  Si30  1  0.099090  0.296960  0.361577  1
  Si  Si31  1  0.289563  0.499898  0.315318  1
  Si  Si32  1  0.145066  0.499912  0.799272  1
  Si  Si33  1  0.256168  0.499917  0.684725  1
  O  O34  1  0.198095  0.905425  0.269489  1
  O  O35  1  0.302472  0.594362  0.730302  1
  O  O36  1  0.128515  0.748487  0.274611  1
  O  O37  1  0.166051  0.786334  0.098520  1
  O  O38  1  0.262047  0.747351  0.305514  1
  O  O39  1  0.238674  0.752406  0.696613  1
  O  O40  1  0.111649  0.751570  0.868330  1
  O  O41  1  0.096633  0.593071  0.762185  1
  O  O42  1  0.105134  0.747302  0.660944  1
  O  O43  1  0.013628  0.712338  0.314886  1
  O  O44  1  0.184750  0.907064  0.954261  1
  O  O45  1  0.315470  0.592859  0.047617  1
  O  O46  1  0.249719  0.749888  0.997517  1
  O  O47  1  0.166867  0.904467  0.630656  1
  O  O48  1  0.302870  0.999868  0.063476  1
  O  O49  1  0.138492  0.756375  0.484517  1
  O  O50  1  0.121920  0.594462  0.380511  1
  O  O51  1  0.281417  0.999895  0.661120  1
  O  O52  1  0.306486  0.999928  0.271524  1
  O  O53  1  0.234797  0.999883  0.825389  1
  O  O54  1  0.280073  0.999911  0.455651  1
  Si  Si55  1  0.185331  0.796284  0.235119  1
  Si  Si56  1  0.315481  0.703259  0.765876  1
  Si  Si57  1  0.072716  0.701013  0.743253  1
  Si  Si58  1  0.175664  0.798780  0.979997  1
  Si  Si59  1  0.324653  0.700745  0.020564  1
  Si  Si60  1  0.159950  0.791819  0.615352  1
  Si  Si61  1  0.099091  0.702840  0.361619  1
  Si  Si62  1  0.227010  0.999837  0.946749  1
  Si  Si63  1  0.211039  0.999898  0.686152  1
  Si  Si64  1  0.244259  0.999914  0.315777  1
  Si  Si65  1  0.331545  0.999901  0.592994  1
  O  O66  1  0.372076  0.248116  0.726400  1
  O  O67  1  0.628332  0.248596  0.273711  1
  Si  Si68  1  0.401615  0.202543  0.639560  1
  Si  Si69  1  0.598924  0.202891  0.360719  1
  O  O70  1  0.387983  0.250963  0.132208  1
  O  O71  1  0.612654  0.250760  0.868111  1
  O  O72  1  0.404161  0.093034  0.239074  1
  O  O73  1  0.596519  0.093016  0.760778  1
  O  O74  1  0.395346  0.247253  0.339973  1
  O  O75  1  0.604950  0.247434  0.659991  1
  O  O76  1  0.513485  0.212713  0.314238  1
  O  O77  1  0.487078  0.212104  0.686491  1
  O  O78  1  0.638547  0.256180  0.483760  1
  O  O79  1  0.362532  0.256529  0.516989  1
  O  O80  1  0.621596  0.094446  0.379322  1
  O  O81  1  0.378389  0.094333  0.619838  1
  Si  Si82  1  0.427683  0.201132  0.257487  1
  Si  Si83  1  0.572886  0.201056  0.742742  1
  Si  Si84  1  0.659894  0.291770  0.614504  1
  Si  Si85  1  0.340831  0.291891  0.386092  1
  O  O86  1  0.666188  0.286045  0.097815  1
  O  O87  1  0.335762  0.288226  0.902992  1
  O  O88  1  0.333837  0.404510  0.370653  1
  O  O89  1  0.628302  0.751186  0.273689  1
  O  O90  1  0.372071  0.751730  0.726461  1
  Si  Si91  1  0.355643  0.999910  0.201931  1
  O  O92  1  0.666128  0.713685  0.097785  1
  O  O93  1  0.612686  0.749072  0.868122  1
  O  O94  1  0.387832  0.748881  0.132193  1
  O  O95  1  0.596522  0.906789  0.760751  1
  O  O96  1  0.404144  0.906775  0.239125  1
  O  O97  1  0.604924  0.752347  0.659974  1
  O  O98  1  0.395334  0.752558  0.340026  1
  O  O99  1  0.487079  0.787697  0.686551  1
  O  O100  1  0.513426  0.787050  0.314114  1
  O  O101  1  0.362534  0.743241  0.517052  1
  O  O102  1  0.638484  0.743603  0.483710  1
  O  O103  1  0.378387  0.905466  0.619824  1
  O  O104  1  0.621559  0.905330  0.379281  1
  Si  Si105  1  0.572887  0.798750  0.742748  1
  Si  Si106  1  0.427627  0.798663  0.257470  1
  Si  Si107  1  0.340821  0.707905  0.386139  1
  Si  Si108  1  0.659856  0.708014  0.614463  1
  Si  Si109  1  0.401616  0.797259  0.639604  1
  Si  Si110  1  0.598872  0.796887  0.360669  1
  O  O111  1  0.335736  0.711578  0.903037  1
  Si  Si112  1  0.644983  0.999903  0.798148  1
  O  O113  1  0.333829  0.595290  0.370655  1
  O  O114  1  0.698028  0.405423  0.268328  1
  O  O115  1  0.802376  0.094357  0.729117  1
  O  O116  1  0.871895  0.251814  0.725584  1
  O  O117  1  0.835842  0.211256  0.902315  1
  O  O118  1  0.761936  0.247283  0.305064  1
  O  O119  1  0.738568  0.252354  0.696129  1
  O  O120  1  0.888834  0.247976  0.131983  1
  O  O121  1  0.904045  0.406702  0.237665  1
  O  O122  1  0.895130  0.252718  0.339047  1
  O  O123  1  0.986933  0.288095  0.685895  1
  O  O124  1  0.684492  0.407102  0.953417  1
  O  O125  1  0.815192  0.092784  0.046696  1
  O  O126  1  0.751106  0.251401  0.998766  1
  Si  Si127  1  0.855598  0.499904  0.200791  1
  O  O128  1  0.833694  0.095270  0.369681  1
  O  O129  1  0.862593  0.243071  0.516303  1
  O  O130  1  0.878062  0.405448  0.618682  1
  O  O131  1  0.781167  0.499886  0.660109  1
  Si  Si132  1  0.831226  0.499874  0.591864  1
  O  O133  1  0.734491  0.499899  0.824382  1
  O  O134  1  0.806572  0.499913  0.270626  1
  Si  Si135  1  0.726765  0.499897  0.945798  1
  O  O136  1  0.779800  0.499858  0.454501  1
  O  O137  1  0.802686  0.499899  0.062421  1
  Si  Si138  1  0.744214  0.499893  0.314629  1
  Si  Si139  1  0.685264  0.296218  0.234325  1
  Si  Si140  1  0.815406  0.203180  0.765082  1
  Si  Si141  1  0.927789  0.298680  0.256924  1
  Si  Si142  1  0.676178  0.298620  0.979610  1
  Si  Si143  1  0.825149  0.200514  0.020171  1
  Si  Si144  1  0.840769  0.207872  0.385307  1
  Si  Si145  1  0.901448  0.297311  0.638728  1
  Si  Si146  1  0.710800  0.499899  0.685168  1
  O  O147  1  0.666705  0.404437  0.629630  1
  O  O148  1  0.802371  0.905430  0.729166  1
  O  O149  1  0.698024  0.594365  0.268377  1
  O  O150  1  0.871859  0.747965  0.725558  1
  O  O151  1  0.835784  0.788474  0.902288  1
  O  O152  1  0.738526  0.747459  0.696057  1
  O  O153  1  0.761900  0.752524  0.304992  1
  O  O154  1  0.888864  0.751857  0.131997  1
  O  O155  1  0.904047  0.593104  0.237643  1
  O  O156  1  0.895111  0.747068  0.339038  1
  O  O157  1  0.986871  0.711671  0.685774  1
  O  O158  1  0.815181  0.907009  0.046670  1
  O  O159  1  0.684480  0.592690  0.953387  1
  O  O160  1  0.751144  0.748347  0.998951  1
  O  O161  1  0.833685  0.904523  0.369665  1
  Si  Si162  1  0.772980  0.999897  0.053760  1
  O  O163  1  0.862522  0.756708  0.516247  1
  O  O164  1  0.878024  0.594327  0.618639  1
  O  O165  1  0.718951  0.999886  0.339285  1
  O  O166  1  0.719435  0.999859  0.543799  1
  Si  Si167  1  0.815370  0.796592  0.765067  1
  Si  Si168  1  0.685234  0.703557  0.234312  1
  Si  Si169  1  0.927791  0.701126  0.256932  1
  Si  Si170  1  0.825143  0.799273  0.020180  1
  Si  Si171  1  0.676171  0.701166  0.979617  1
  Si  Si172  1  0.840736  0.791919  0.385266  1
  Si  Si173  1  0.901391  0.702468  0.638672  1
  Si  Si174  1  0.789360  0.999901  0.314413  1
  O  O175  1  0.694493  0.999915  0.729193  1
  O  O176  1  0.697308  0.999898  0.936772  1
  O  O177  1  0.765189  0.999900  0.175066  1
  Si  Si178  1  0.756089  0.999893  0.683592  1
  O  O179  1  0.666697  0.595352  0.629614  1
  Si  Si180  1  0.668294  0.999875  0.406425  1
