# generated using pymatgen
data_SiO2
_symmetry_space_group_name_H-M   'P 1'
_cell_length_a   18.94407609
_cell_length_b   18.94450909
_cell_length_c   11.40919207
_cell_angle_alpha   90.00000000
_cell_angle_beta   90.00000000
_cell_angle_gamma   90.00000000
_symmetry_Int_Tables_number   1
_chemical_formula_structural   SiO2
_chemical_formula_sum   'Si64 O128'
_cell_volume   4094.60183281
_cell_formula_units_Z   64
loop_
 _symmetry_equiv_pos_site_id
 _symmetry_equiv_pos_as_xyz
  1  'x, y, z'
loop_
 _atom_site_type_symbol
 _atom_site_label
 _atom_site_symmetry_multiplicity
 _atom_site_fract_x
 _atom_site_fract_y
 _atom_site_fract_z
 _atom_site_occupancy
  Si  Si1  1  0.194773  0.014173  0.264956  1
  Si  Si2  1  0.014290  0.194665  0.264966  1
  Si  Si3  1  0.194781  0.014174  0.735141  1
  Si  Si4  1  0.014296  0.194667  0.735149  1
  Si  Si5  1  0.263525  0.147900  0.364874  1
  Si  Si6  1  0.148021  0.263410  0.364888  1
  Si  Si7  1  0.263532  0.147897  0.635209  1
  Si  Si8  1  0.148029  0.263407  0.635223  1
  Si  Si9  1  0.377940  0.262571  0.364641  1
  Si  Si10  1  0.377948  0.262566  0.635436  1
  Si  Si11  1  0.057665  0.057559  0.135682  1
  Si  Si12  1  0.057675  0.057559  0.864420  1
  O  O13  1  0.394703  0.261880  0.500037  1
  O  O14  1  0.194788  0.331072  0.660742  1
  O  O15  1  0.063042  0.062932  0.000052  1
  O  O16  1  0.131187  0.035781  0.185344  1
  O  O17  1  0.035895  0.131083  0.185345  1
  O  O18  1  0.131201  0.035789  0.814763  1
  O  O19  1  0.035901  0.131083  0.814762  1
  O  O20  1  0.447973  0.268235  0.709427  1
  O  O21  1  0.447961  0.268242  0.290641  1
  O  O22  1  0.069541  0.069429  0.500057  1
  O  O23  1  0.245436  0.078964  0.291582  1
  O  O24  1  0.079082  0.245326  0.291600  1
  O  O25  1  0.245447  0.078960  0.708500  1
  O  O26  1  0.079091  0.245324  0.708518  1
  O  O27  1  0.198527  0.198411  0.351060  1
  O  O28  1  0.198536  0.198407  0.649039  1
  O  O29  1  0.266224  0.130252  0.500041  1
  O  O30  1  0.130378  0.266104  0.500057  1
  O  O31  1  0.331191  0.194657  0.339352  1
  O  O32  1  0.331201  0.194652  0.660726  1
  O  O33  1  0.329334  0.329215  0.345223  1
  O  O34  1  0.329344  0.329210  0.654869  1
  O  O35  1  0.194777  0.331077  0.339370  1
  Si  Si36  1  0.000031  0.115306  0.500059  1
  Si  Si37  1  0.305281  0.514170  0.764965  1
  Si  Si38  1  0.305274  0.514176  0.235150  1
  Si  Si39  1  0.236528  0.647898  0.864875  1
  Si  Si40  1  0.236523  0.647898  0.135211  1
  Si  Si41  1  0.262693  0.377823  0.364657  1
  Si  Si42  1  0.262702  0.377819  0.635451  1
  Si  Si43  1  0.442392  0.557555  0.635694  1
  Si  Si44  1  0.442378  0.557562  0.364433  1
  Si  Si45  1  0.384639  0.499916  0.000061  1
  O  O46  1  0.262011  0.394580  0.500055  1
  O  O47  1  0.437012  0.562931  0.500065  1
  O  O48  1  0.368870  0.535777  0.685359  1
  O  O49  1  0.464162  0.631079  0.685356  1
  O  O50  1  0.368850  0.535793  0.314778  1
  O  O51  1  0.464151  0.631086  0.314774  1
  O  O52  1  0.268369  0.447840  0.709449  1
  O  O53  1  0.268358  0.447846  0.290665  1
  O  O54  1  0.339139  0.495552  0.886111  1
  O  O55  1  0.495669  0.339030  0.886078  1
  O  O56  1  0.339151  0.495549  0.114024  1
  O  O57  1  0.495668  0.339028  0.113990  1
  O  O58  1  0.437282  0.437165  0.000043  1
  O  O59  1  0.430513  0.569429  0.000058  1
  O  O60  1  0.254618  0.578962  0.791585  1
  O  O61  1  0.254608  0.578962  0.208503  1
  O  O62  1  0.233831  0.630252  0.000043  1
  Si  Si63  1  0.485765  0.694665  0.764968  1
  Si  Si64  1  0.485757  0.694667  0.235152  1
  Si  Si65  1  0.352032  0.763408  0.864884  1
  Si  Si66  1  0.352027  0.763408  0.135219  1
  Si  Si67  1  0.122113  0.762569  0.864641  1
  Si  Si68  1  0.237360  0.877821  0.864650  1
  Si  Si69  1  0.122108  0.762568  0.135437  1
  Si  Si70  1  0.237354  0.877821  0.135445  1
  O  O71  1  0.238043  0.894580  0.000048  1
  O  O72  1  0.000033  0.999914  0.836620  1
  O  O73  1  0.231687  0.947843  0.209440  1
  O  O74  1  0.052084  0.768238  0.209429  1
  O  O75  1  0.231695  0.947843  0.790657  1
  O  O76  1  0.052091  0.768239  0.790643  1
  O  O77  1  0.160911  0.995553  0.386097  1
  O  O78  1  0.004386  0.839031  0.386079  1
  O  O79  1  0.160909  0.995549  0.614009  1
  O  O80  1  0.004387  0.839026  0.613991  1
  O  O81  1  0.062773  0.937165  0.500043  1
  O  O82  1  0.420971  0.745325  0.791594  1
  O  O83  1  0.420964  0.745325  0.208514  1
  O  O84  1  0.301526  0.698411  0.851058  1
  O  O85  1  0.301520  0.698408  0.149037  1
  O  O86  1  0.369677  0.766104  0.000053  1
  O  O87  1  0.168861  0.694655  0.839353  1
  O  O88  1  0.305275  0.831075  0.839364  1
  O  O89  1  0.168855  0.694654  0.160727  1
  O  O90  1  0.305269  0.831074  0.160736  1
  O  O91  1  0.170718  0.829213  0.845220  1
  O  O92  1  0.170712  0.829212  0.154866  1
  O  O93  1  0.105352  0.761880  0.000038  1
  O  O94  1  0.000018  0.999917  0.163468  1
  Si  Si95  1  0.115415  0.999917  0.500052  1
  Si  Si96  1  0.000022  0.884523  0.500038  1
  Si  Si97  1  0.514297  0.305161  0.764945  1
  Si  Si98  1  0.514288  0.305165  0.235130  1
  Si  Si99  1  0.648028  0.236421  0.864878  1
  Si  Si100  1  0.648021  0.236420  0.135214  1
  Si  Si101  1  0.877948  0.237258  0.864663  1
  Si  Si102  1  0.762699  0.122007  0.864651  1
  Si  Si103  1  0.877940  0.237257  0.135458  1
  Si  Si104  1  0.762692  0.122006  0.135446  1
  O  O105  1  0.768357  0.051983  0.209438  1
  O  O106  1  0.947962  0.231587  0.209455  1
  O  O107  1  0.768364  0.051985  0.790656  1
  O  O108  1  0.947972  0.231591  0.790671  1
  O  O109  1  0.839148  0.004280  0.386080  1
  O  O110  1  0.995665  0.160798  0.386102  1
  O  O111  1  0.839136  0.004275  0.613993  1
  O  O112  1  0.995668  0.160803  0.614012  1
  O  O113  1  0.937278  0.062664  0.500062  1
  O  O114  1  0.579091  0.254504  0.791583  1
  O  O115  1  0.579082  0.254504  0.208503  1
  O  O116  1  0.698536  0.301421  0.851062  1
  O  O117  1  0.698528  0.301417  0.149041  1
  O  O118  1  0.630377  0.233725  0.000045  1
  O  O119  1  0.831201  0.305173  0.839373  1
  O  O120  1  0.694786  0.168756  0.839361  1
  O  O121  1  0.831192  0.305171  0.160747  1
  O  O122  1  0.694776  0.168753  0.160732  1
  O  O123  1  0.829342  0.170614  0.845231  1
  O  O124  1  0.829334  0.170613  0.154878  1
  O  O125  1  0.894702  0.237945  0.000062  1
  O  O126  1  0.762009  0.105248  0.000048  1
  Si  Si127  1  0.694785  0.485652  0.764950  1
  Si  Si128  1  0.694775  0.485657  0.235135  1
  Si  Si129  1  0.763534  0.351930  0.864890  1
  Si  Si130  1  0.763526  0.351928  0.135225  1
  Si  Si131  1  0.737356  0.622008  0.364645  1
  Si  Si132  1  0.737362  0.622005  0.635440  1
  Si  Si133  1  0.557680  0.442267  0.635669  1
  Si  Si134  1  0.557665  0.442273  0.364408  1
  Si  Si135  1  0.615418  0.499912  0.000038  1
  Si  Si136  1  0.500033  0.384523  0.000035  1
  O  O137  1  0.500040  0.499913  0.663475  1
  O  O138  1  0.500018  0.499916  0.336627  1
  O  O139  1  0.563045  0.436898  0.500037  1
  O  O140  1  0.631207  0.464033  0.685326  1
  O  O141  1  0.535903  0.368743  0.685325  1
  O  O142  1  0.631186  0.464050  0.314742  1
  O  O143  1  0.535892  0.368749  0.314746  1
  O  O144  1  0.731699  0.551982  0.709431  1
  O  O145  1  0.731689  0.551987  0.290650  1
  O  O146  1  0.660909  0.504280  0.886078  1
  O  O147  1  0.504388  0.660804  0.886109  1
  O  O148  1  0.660916  0.504276  0.113990  1
  O  O149  1  0.504387  0.660797  0.114020  1
  O  O150  1  0.562776  0.562664  0.000052  1
  O  O151  1  0.569544  0.430400  0.000037  1
  O  O152  1  0.745450  0.420867  0.791598  1
  O  O153  1  0.745437  0.420865  0.208515  1
  O  O154  1  0.766225  0.369575  0.000058  1
  O  O155  1  0.738046  0.605248  0.500042  1
  Si  Si156  1  0.500024  0.615306  0.000061  1
  Si  Si157  1  0.805274  0.985654  0.264951  1
  Si  Si158  1  0.985759  0.805164  0.264945  1
  Si  Si159  1  0.805277  0.985655  0.735137  1
  Si  Si160  1  0.985765  0.805163  0.735130  1
  Si  Si161  1  0.736523  0.851930  0.364885  1
  Si  Si162  1  0.852028  0.736422  0.364874  1
  Si  Si163  1  0.736526  0.851928  0.635220  1
  Si  Si164  1  0.852032  0.736420  0.635210  1
  Si  Si165  1  0.622108  0.737259  0.364657  1
  Si  Si166  1  0.622113  0.737255  0.635452  1
  Si  Si167  1  0.942378  0.942270  0.135667  1
  Si  Si168  1  0.942387  0.942271  0.864406  1
  Si  Si169  1  0.884637  0.999912  0.500043  1
  O  O170  1  0.605352  0.737945  0.500056  1
  O  O171  1  0.937009  0.936898  0.000036  1
  O  O172  1  0.868851  0.964038  0.185326  1
  O  O173  1  0.964154  0.868746  0.185325  1
  O  O174  1  0.868864  0.964046  0.814742  1
  O  O175  1  0.964161  0.868747  0.814747  1
  O  O176  1  0.552092  0.731586  0.709451  1
  O  O177  1  0.552083  0.731591  0.290667  1
  O  O178  1  0.930510  0.930400  0.500043  1
  O  O179  1  0.754608  0.920867  0.291595  1
  O  O180  1  0.920965  0.754507  0.291579  1
  O  O181  1  0.754613  0.920864  0.708513  1
  O  O182  1  0.920971  0.754503  0.708501  1
  O  O183  1  0.801519  0.801422  0.351058  1
  O  O184  1  0.801525  0.801417  0.649037  1
  O  O185  1  0.733829  0.869575  0.500053  1
  O  O186  1  0.869678  0.733726  0.500041  1
  O  O187  1  0.668855  0.805174  0.339367  1
  O  O188  1  0.668861  0.805169  0.660742  1
  O  O189  1  0.670714  0.670616  0.345225  1
  O  O190  1  0.670719  0.670612  0.654872  1
  O  O191  1  0.805276  0.668753  0.660727  1
  O  O192  1  0.805270  0.668757  0.339355  1
