# generated using pymatgen
data_SiO2
_symmetry_space_group_name_H-M   'P 1'
_cell_length_a   8.96036688
_cell_length_b   9.13716697
_cell_length_c   16.12131035
_cell_angle_alpha   90.00000000
_cell_angle_beta   90.00000000
_cell_angle_gamma   90.00000000
_symmetry_Int_Tables_number   1
_chemical_formula_structural   SiO2
_chemical_formula_sum   'Si24 O48'
_cell_volume   1319.8898582
_cell_formula_units_Z   24
loop_
 _symmetry_equiv_pos_site_id
 _symmetry_equiv_pos_as_xyz
  1  'x, y, z'
loop_
 _atom_site_type_symbol
 _atom_site_label
 _atom_site_symmetry_multiplicity
 _atom_site_fract_x
 _atom_site_fract_y
 _atom_site_fract_z
 _atom_site_occupancy
  O  O1  1  0.318872  0.862559  0.387406  1
  O  O2  1  0.181271  0.862562  0.887407  1
  O  O3  1  0.818873  0.137165  0.387406  1
  O  O4  1  0.681271  0.137168  0.887406  1
  O  O5  1  0.108715  0.730376  0.459415  1
  O  O6  1  0.391426  0.730374  0.959415  1
  O  O7  1  0.608715  0.269347  0.459415  1
  O  O8  1  0.891426  0.269355  0.959415  1
  O  O9  1  0.068994  0.783613  0.312577  1
  O  O10  1  0.431148  0.783613  0.812577  1
  O  O11  1  0.568994  0.216110  0.312577  1
  O  O12  1  0.931149  0.216117  0.812577  1
  O  O13  1  0.068663  0.001832  0.416396  1
  O  O14  1  0.431484  0.001830  0.916395  1
  O  O15  1  0.568664  0.997891  0.416395  1
  O  O16  1  0.931483  0.997899  0.916396  1
  O  O17  1  0.178654  0.358344  0.792801  1
  O  O18  1  0.321490  0.358341  0.292803  1
  O  O19  1  0.678655  0.641387  0.792801  1
  O  O20  1  0.821490  0.641382  0.292802  1
  O  O21  1  0.926161  0.487689  0.784485  1
  O  O22  1  0.573985  0.487682  0.284484  1
  O  O23  1  0.426162  0.512040  0.784485  1
  O  O24  1  0.073985  0.512041  0.284484  1
  O  O25  1  0.997040  0.309480  0.667974  1
  O  O26  1  0.503101  0.309477  0.167973  1
  O  O27  1  0.497041  0.690246  0.667973  1
  O  O28  1  0.003102  0.690249  0.167974  1
  O  O29  1  0.010633  0.781451  0.007594  1
  O  O30  1  0.489510  0.781445  0.507594  1
  O  O31  1  0.510633  0.218278  0.007594  1
  O  O32  1  0.989509  0.218278  0.507594  1
  O  O33  1  0.211367  0.615225  0.059270  1
  O  O34  1  0.288772  0.615224  0.559271  1
  O  O35  1  0.711367  0.384504  0.059270  1
  O  O36  1  0.788772  0.384499  0.559271  1
  O  O37  1  0.961460  0.516030  0.046482  1
  O  O38  1  0.538677  0.516024  0.546482  1
  O  O39  1  0.461460  0.483698  0.046482  1
  O  O40  1  0.038677  0.483699  0.546481  1
  O  O41  1  0.072630  0.263928  0.360159  1
  O  O42  1  0.427512  0.263926  0.860158  1
  O  O43  1  0.572630  0.735795  0.360158  1
  O  O44  1  0.927512  0.735803  0.860159  1
  O  O45  1  0.205339  0.482052  0.420496  1
  O  O46  1  0.294802  0.482052  0.920495  1
  O  O47  1  0.705339  0.517670  0.420496  1
  O  O48  1  0.794802  0.517677  0.920495  1
  Si  Si49  1  0.142857  0.853165  0.392213  1
  Si  Si50  1  0.357287  0.853166  0.892213  1
  Si  Si51  1  0.642857  0.146557  0.392213  1
  Si  Si52  1  0.857287  0.146564  0.892213  1
  Si  Si53  1  0.044223  0.659803  0.074839  1
  Si  Si54  1  0.455918  0.659798  0.574839  1
  Si  Si55  1  0.544222  0.339926  0.074839  1
  Si  Si56  1  0.955917  0.339926  0.574839  1
  Si  Si57  1  0.170619  0.400719  0.336188  1
  Si  Si58  1  0.329525  0.400719  0.836187  1
  Si  Si59  1  0.670619  0.599004  0.336188  1
  Si  Si60  1  0.829525  0.599011  0.836188  1
  Si  Si61  1  0.012395  0.342187  0.763342  1
  Si  Si62  1  0.487748  0.342181  0.263343  1
  Si  Si63  1  0.512396  0.657543  0.763342  1
  Si  Si64  1  0.987748  0.657542  0.263343  1
  Si  Si65  1  0.156310  0.577764  0.498443  1
  Si  Si66  1  0.343830  0.577764  0.998442  1
  Si  Si67  1  0.656309  0.421959  0.498442  1
  Si  Si68  1  0.843829  0.421966  0.998442  1
  Si  Si69  1  0.986141  0.152308  0.416993  1
  Si  Si70  1  0.514003  0.152308  0.916992  1
  Si  Si71  1  0.486141  0.847414  0.416992  1
  Si  Si72  1  0.014003  0.847421  0.916993  1
