# generated using pymatgen
data_SiO2
_symmetry_space_group_name_H-M   'P 1'
_cell_length_a   7.15454545
_cell_length_b   41.59232484
_cell_length_c   7.18682161
_cell_angle_alpha   90.00000000
_cell_angle_beta   90.00300000
_cell_angle_gamma   90.00000000
_symmetry_Int_Tables_number   1
_chemical_formula_structural   SiO2
_chemical_formula_sum   'Si36 O72'
_cell_volume   2138.61253241
_cell_formula_units_Z   36
loop_
 _symmetry_equiv_pos_site_id
 _symmetry_equiv_pos_as_xyz
  1  'x, y, z'
loop_
 _atom_site_type_symbol
 _atom_site_label
 _atom_site_symmetry_multiplicity
 _atom_site_fract_x
 _atom_site_fract_y
 _atom_site_fract_z
 _atom_site_occupancy
  O  O1  1  0.828410  0.100016  0.005636  1
  O  O2  1  0.328353  0.600022  0.005616  1
  O  O3  1  0.171868  0.100006  0.005644  1
  O  O4  1  0.671812  0.600004  0.005626  1
  O  O5  1  0.171903  0.899905  0.005574  1
  O  O6  1  0.671803  0.399913  0.005699  1
  O  O7  1  0.828444  0.899900  0.005566  1
  O  O8  1  0.328345  0.399896  0.005690  1
  O  O9  1  0.676450  0.050997  0.185676  1
  O  O10  1  0.176355  0.551012  0.185754  1
  O  O11  1  0.323687  0.050935  0.826457  1
  O  O12  1  0.823592  0.550924  0.826535  1
  O  O13  1  0.323741  0.948979  0.826463  1
  O  O14  1  0.823590  0.448986  0.826526  1
  O  O15  1  0.676503  0.948915  0.185683  1
  O  O16  1  0.176352  0.448912  0.185745  1
  O  O17  1  0.000090  0.049029  0.006207  1
  O  O18  1  0.499990  0.549031  0.006294  1
  O  O19  1  0.000148  0.950884  0.006221  1
  O  O20  1  0.499987  0.450886  0.006277  1
  O  O21  1  0.676491  0.050950  0.826467  1
  O  O22  1  0.176401  0.550951  0.826545  1
  O  O23  1  0.323759  0.050978  0.185662  1
  O  O24  1  0.823669  0.550981  0.185741  1
  O  O25  1  0.323816  0.948924  0.185672  1
  O  O26  1  0.823663  0.448943  0.185731  1
  O  O27  1  0.676548  0.948974  0.826475  1
  O  O28  1  0.176394  0.448960  0.826535  1
  O  O29  1  0.500102  0.045101  0.506015  1
  O  O30  1  0.000013  0.545103  0.506097  1
  O  O31  1  0.500154  0.954812  0.506028  1
  O  O32  1  0.000007  0.454814  0.506083  1
  O  O33  1  0.500202  0.999954  0.265278  1
  O  O34  1  0.000161  0.499961  0.265345  1
  O  O35  1  0.500165  0.999959  0.746596  1
  O  O36  1  0.000123  0.499956  0.746664  1
  O  O37  1  0.000179  0.151052  0.169572  1
  O  O38  1  0.500181  0.651055  0.169487  1
  O  O39  1  0.000187  0.149282  0.827862  1
  O  O40  1  0.500191  0.649282  0.827777  1
  O  O41  1  0.000216  0.850638  0.827707  1
  O  O42  1  0.500165  0.350625  0.827956  1
  O  O43  1  0.000206  0.848855  0.169415  1
  O  O44  1  0.500155  0.348870  0.169669  1
  O  O45  1  0.820480  0.200554  0.314694  1
  O  O46  1  0.320527  0.700559  0.314593  1
  O  O47  1  0.180441  0.197381  0.667096  1
  O  O48  1  0.680489  0.697380  0.666996  1
  O  O49  1  0.180496  0.802544  0.666884  1
  O  O50  1  0.680434  0.302520  0.667254  1
  O  O51  1  0.820537  0.799349  0.314487  1
  O  O52  1  0.320468  0.299373  0.314848  1
  O  O53  1  0.000209  0.201180  0.989721  1
  O  O54  1  0.500264  0.701182  0.989617  1
  O  O55  1  0.000267  0.798734  0.989501  1
  O  O56  1  0.500204  0.298734  0.989888  1
  O  O57  1  0.179922  0.200548  0.314708  1
  O  O58  1  0.679977  0.700547  0.314610  1
  O  O59  1  0.819985  0.197386  0.667083  1
  O  O60  1  0.320037  0.697390  0.666986  1
  O  O61  1  0.820042  0.802535  0.666872  1
  O  O62  1  0.319979  0.302515  0.667242  1
  O  O63  1  0.179979  0.799359  0.314502  1
  O  O64  1  0.679921  0.299380  0.314863  1
  O  O65  1  0.500208  0.206113  0.491889  1
  O  O66  1  0.000260  0.706115  0.491791  1
  O  O67  1  0.500266  0.793802  0.491689  1
  O  O68  1  0.000202  0.293800  0.492034  1
  O  O69  1  0.250194  0.249954  0.507559  1
  O  O70  1  0.750236  0.749954  0.507431  1
  O  O71  1  0.750190  0.249958  0.507559  1
  O  O72  1  0.250239  0.749963  0.507432  1
  Si  Si73  1  0.787400  0.061829  0.006060  1
  Si  Si74  1  0.287313  0.561837  0.006123  1
  Si  Si75  1  0.212804  0.061817  0.006052  1
  Si  Si76  1  0.712712  0.561814  0.006116  1
  Si  Si77  1  0.212861  0.938094  0.006047  1
  Si  Si78  1  0.712704  0.438102  0.006120  1
  Si  Si79  1  0.787447  0.938088  0.006055  1
  Si  Si80  1  0.287312  0.438080  0.006127  1
  Si  Si81  1  0.500130  0.037350  0.291363  1
  Si  Si82  1  0.000053  0.537357  0.291442  1
  Si  Si83  1  0.500107  0.037348  0.720667  1
  Si  Si84  1  0.000030  0.537345  0.720743  1
  Si  Si85  1  0.500151  0.962570  0.720678  1
  Si  Si86  1  0.000025  0.462567  0.720736  1
  Si  Si87  1  0.500173  0.962558  0.291367  1
  Si  Si88  1  0.000048  0.462565  0.291431  1
  Si  Si89  1  0.000195  0.189451  0.203735  1
  Si  Si90  1  0.500238  0.689455  0.203643  1
  Si  Si91  1  0.000209  0.187197  0.780060  1
  Si  Si92  1  0.500254  0.687197  0.779954  1
  Si  Si93  1  0.000261  0.812726  0.779864  1
  Si  Si94  1  0.500202  0.312708  0.780199  1
  Si  Si95  1  0.000246  0.810456  0.203522  1
  Si  Si96  1  0.500187  0.310472  0.203894  1
  Si  Si97  1  0.283701  0.212924  0.494918  1
  Si  Si98  1  0.783747  0.712923  0.494821  1
  Si  Si99  1  0.716711  0.212928  0.494905  1
  Si  Si100  1  0.216765  0.712932  0.494807  1
  Si  Si101  1  0.716767  0.786985  0.494721  1
  Si  Si102  1  0.216711  0.286986  0.495026  1
  Si  Si103  1  0.283757  0.786993  0.494734  1
  Si  Si104  1  0.783689  0.286990  0.495040  1
  Si  Si105  1  0.000163  0.125078  0.003120  1
  Si  Si106  1  0.500130  0.625079  0.003047  1
  Si  Si107  1  0.000186  0.874831  0.002998  1
  Si  Si108  1  0.500118  0.374840  0.003181  1
