# generated using pymatgen
data_SiO2
_symmetry_space_group_name_H-M   'P 1'
_cell_length_a   7.43477831
_cell_length_b   8.69349272
_cell_length_c   16.95127053
_cell_angle_alpha   90.00000000
_cell_angle_beta   113.67800000
_cell_angle_gamma   90.00000000
_symmetry_Int_Tables_number   1
_chemical_formula_structural   SiO2
_chemical_formula_sum   'Si18 O36'
_cell_volume   1003.39794849
_cell_formula_units_Z   18
loop_
 _symmetry_equiv_pos_site_id
 _symmetry_equiv_pos_as_xyz
  1  'x, y, z'
loop_
 _atom_site_type_symbol
 _atom_site_label
 _atom_site_symmetry_multiplicity
 _atom_site_fract_x
 _atom_site_fract_y
 _atom_site_fract_z
 _atom_site_occupancy
  O  O1  1  0.182059  0.229205  0.108662  1
  O  O2  1  0.816941  0.229251  0.389865  1
  O  O3  1  0.854410  0.398439  0.274756  1
  O  O4  1  0.144661  0.398428  0.223792  1
  O  O5  1  0.499510  0.315940  0.249226  1
  Si  Si6  1  0.054279  0.171989  0.013816  1
  Si  Si7  1  0.944680  0.171945  0.484697  1
  Si  Si8  1  0.711787  0.355972  0.319253  1
  Si  Si9  1  0.287196  0.356006  0.179239  1
  Si  Si10  1  0.999548  0.497881  0.249280  1
  O  O11  1  0.859962  0.268044  0.975717  1
  O  O12  1  0.139312  0.267629  0.522833  1
  O  O13  1  0.176532  0.219190  0.959788  1
  O  O14  1  0.822559  0.219246  0.538763  1
  O  O15  1  0.263691  0.493910  0.974694  1
  O  O16  1  0.735214  0.493799  0.523830  1
  O  O17  1  0.481977  0.326798  0.927235  1
  O  O18  1  0.517068  0.326757  0.571345  1
  O  O19  1  0.693122  0.495828  0.869677  1
  O  O20  1  0.305718  0.495734  0.628818  1
  O  O21  1  0.124410  0.392870  0.826039  1
  O  O22  1  0.874669  0.392873  0.672515  1
  Si  Si23  1  0.693813  0.392025  0.945758  1
  Si  Si24  1  0.305167  0.391900  0.552769  1
  Si  Si25  1  0.264887  0.348392  0.920204  1
  Si  Si26  1  0.734147  0.348340  0.578367  1
  Si  Si27  1  0.999543  0.499952  0.749278  1
  O  O28  1  0.139316  0.729844  0.021791  1
  O  O29  1  0.859975  0.729386  0.476774  1
  O  O30  1  0.822658  0.777035  0.038263  1
  O  O31  1  0.176433  0.777107  0.460287  1
  O  O32  1  0.735452  0.502684  0.023676  1
  O  O33  1  0.263474  0.502597  0.474855  1
  O  O34  1  0.517031  0.670428  0.070659  1
  O  O35  1  0.482019  0.670395  0.427922  1
  O  O36  1  0.999101  0.998902  0.000917  1
  O  O37  1  0.998395  0.998581  0.497365  1
  O  O38  1  0.874511  0.604639  0.172367  1
  O  O39  1  0.124573  0.604646  0.326190  1
  Si  Si40  1  0.305080  0.605552  0.052165  1
  Si  Si41  1  0.693894  0.605413  0.446362  1
  Si  Si42  1  0.734345  0.648486  0.078003  1
  Si  Si43  1  0.264692  0.648452  0.420567  1
  O  O44  1  0.305647  0.502862  0.128635  1
  O  O45  1  0.693182  0.502770  0.369854  1
  Si  Si46  1  0.711882  0.642619  0.819122  1
  Si  Si47  1  0.287100  0.642588  0.679372  1
  O  O48  1  0.817086  0.769994  0.889508  1
  O  O49  1  0.181914  0.770044  0.609018  1
  O  O50  1  0.144678  0.599661  0.723904  1
  O  O51  1  0.854384  0.599647  0.774641  1
  O  O52  1  0.499509  0.682722  0.749228  1
  Si  Si53  1  0.944970  0.825958  0.984641  1
  Si  Si54  1  0.053979  0.825910  0.513872  1
