# generated using pymatgen
data_SiO2
_symmetry_space_group_name_H-M   'P 1'
_cell_length_a   17.88902580
_cell_length_b   17.88148269
_cell_length_c   17.86974808
_cell_angle_alpha   90.00000000
_cell_angle_beta   90.00000000
_cell_angle_gamma   90.00000000
_symmetry_Int_Tables_number   1
_chemical_formula_structural   SiO2
_chemical_formula_sum   'Si48 O96'
_cell_volume   5716.2162095
_cell_formula_units_Z   48
loop_
 _symmetry_equiv_pos_site_id
 _symmetry_equiv_pos_as_xyz
  1  'x, y, z'
loop_
 _atom_site_type_symbol
 _atom_site_label
 _atom_site_symmetry_multiplicity
 _atom_site_fract_x
 _atom_site_fract_y
 _atom_site_fract_z
 _atom_site_occupancy
  O  O1  1  0.452445  0.139378  0.140907  1
  O  O2  1  0.140043  0.453089  0.140061  1
  O  O3  1  0.640676  0.358341  0.045143  1
  O  O4  1  0.408658  0.041703  0.252797  1
  O  O5  1  0.250348  0.411797  0.040526  1
  O  O6  1  0.540661  0.247931  0.086348  1
  O  O7  1  0.912314  0.459144  0.249786  1
  O  O8  1  0.040543  0.412379  0.250166  1
  O  O9  1  0.412793  0.247900  0.039764  1
  O  O10  1  0.750140  0.458387  0.086981  1
  O  O11  1  0.538995  0.087246  0.251761  1
  Si  Si12  1  0.074075  0.472448  0.193854  1
  Si  Si13  1  0.573535  0.027801  0.307891  1
  Si  Si14  1  0.972345  0.425457  0.306038  1
  Si  Si15  1  0.694053  0.424921  0.026564  1
  Si  Si16  1  0.472310  0.191843  0.074385  1
  Si  Si17  1  0.469750  0.074022  0.196388  1
  Si  Si18  1  0.193830  0.471833  0.073886  1
  Si  Si19  1  0.574653  0.304747  0.026782  1
  O  O20  1  0.141636  0.139776  0.452979  1
  O  O21  1  0.860191  0.139848  0.546714  1
  O  O22  1  0.953665  0.359065  0.359517  1
  O  O23  1  0.639827  0.046273  0.360859  1
  O  O24  1  0.360525  0.047527  0.640800  1
  O  O25  1  0.047109  0.360221  0.639411  1
  O  O26  1  0.041579  0.249365  0.412349  1
  O  O27  1  0.750023  0.040658  0.587942  1
  O  O28  1  0.750603  0.086793  0.459412  1
  O  O29  1  0.088222  0.249139  0.540712  1
  O  O30  1  0.959899  0.249918  0.587465  1
  O  O31  1  0.252980  0.041580  0.409344  1
  O  O32  1  0.251836  0.086789  0.539812  1
  O  O33  1  0.913257  0.248953  0.459087  1
  O  O34  1  0.000763  0.153270  0.500127  1
  Si  Si35  1  0.973306  0.305157  0.425310  1
  O  O36  1  0.497199  0.000991  0.347076  1
  O  O37  1  0.999885  0.499687  0.346146  1
  O  O38  1  0.000712  0.345351  0.499606  1
  O  O39  1  0.500474  0.002232  0.655838  1
  Si  Si40  1  0.075173  0.193126  0.472573  1
  Si  Si41  1  0.806355  0.073832  0.527750  1
  Si  Si42  1  0.694221  0.026621  0.426150  1
  Si  Si43  1  0.028212  0.305596  0.574119  1
  Si  Si44  1  0.926413  0.193344  0.527575  1
  Si  Si45  1  0.196496  0.073794  0.470467  1
  Si  Si46  1  0.307959  0.027316  0.574444  1
  O  O47  1  0.347205  0.000755  0.497941  1
  O  O48  1  0.859665  0.454805  0.858555  1
  O  O49  1  0.553155  0.142892  0.857437  1
  O  O50  1  0.359657  0.358113  0.952890  1
  O  O51  1  0.959518  0.414399  0.748202  1
  O  O52  1  0.585218  0.248480  0.957630  1
  O  O53  1  0.249918  0.458142  0.911999  1
  O  O54  1  0.458320  0.091597  0.752617  1
  O  O55  1  0.585449  0.042998  0.751296  1
  O  O56  1  0.750007  0.412403  0.958326  1
  O  O57  1  0.458016  0.246912  0.909288  1
  O  O58  1  0.087342  0.460946  0.748352  1
  Si  Si59  1  0.027903  0.426459  0.692203  1
  O  O60  1  0.500164  0.343722  0.998527  1
  O  O61  1  0.498982  0.003022  0.846904  1
  Si  Si62  1  0.925490  0.473874  0.805027  1
  Si  Si63  1  0.525982  0.191055  0.921090  1
  Si  Si64  1  0.306275  0.424658  0.972217  1
  Si  Si65  1  0.426037  0.030510  0.696179  1
  Si  Si66  1  0.526150  0.079693  0.808614  1
  Si  Si67  1  0.806125  0.472806  0.925107  1
  Si  Si68  1  0.425654  0.303282  0.970429  1
  O  O69  1  0.498999  0.152689  0.997889  1
  O  O70  1  0.153975  0.499162  0.999261  1
  O  O71  1  0.653844  0.499352  0.999519  1
  O  O72  1  0.346070  0.499228  0.999629  1
  O  O73  1  0.845908  0.499970  0.999750  1
  O  O74  1  0.359469  0.639994  0.046136  1
  O  O75  1  0.859260  0.546328  0.140418  1
  O  O76  1  0.545394  0.859362  0.141725  1
  O  O77  1  0.249530  0.540254  0.086906  1
  O  O78  1  0.457181  0.914556  0.251440  1
  O  O79  1  0.959083  0.587456  0.250535  1
  O  O80  1  0.587272  0.749840  0.041572  1
  O  O81  1  0.458826  0.750130  0.087881  1
  O  O82  1  0.087337  0.540595  0.249756  1
  O  O83  1  0.585684  0.959378  0.251937  1
  O  O84  1  0.749228  0.586947  0.040906  1
  O  O85  1  0.999724  0.500024  0.153969  1
  O  O86  1  0.499876  0.846234  0.000828  1
  Si  Si87  1  0.305991  0.573735  0.026849  1
  Si  Si88  1  0.420506  0.973848  0.308816  1
  Si  Si89  1  0.925470  0.527530  0.194093  1
  Si  Si90  1  0.527052  0.805992  0.075162  1
  Si  Si91  1  0.425497  0.693990  0.027575  1
  Si  Si92  1  0.027384  0.574072  0.306238  1
  Si  Si93  1  0.526284  0.925223  0.195172  1
  Si  Si94  1  0.805694  0.526910  0.074249  1
  O  O95  1  0.499940  0.654175  0.000167  1
  O  O96  1  0.497998  0.999555  0.156017  1
  O  O97  1  0.947315  0.643327  0.643170  1
  O  O98  1  0.640555  0.954501  0.641653  1
  O  O99  1  0.357262  0.946737  0.357494  1
  O  O100  1  0.046735  0.639333  0.360694  1
  O  O101  1  0.142132  0.858610  0.546196  1
  O  O102  1  0.859943  0.858516  0.455377  1
  O  O103  1  0.750315  0.912151  0.541837  1
  O  O104  1  0.087747  0.748737  0.460654  1
  O  O105  1  0.041708  0.747614  0.589240  1
  O  O106  1  0.749866  0.958215  0.413163  1
  O  O107  1  0.251594  0.914338  0.457719  1
  O  O108  1  0.914869  0.748572  0.543229  1
  O  O109  1  0.959596  0.748219  0.414773  1
  O  O110  1  0.252008  0.958892  0.586409  1
  O  O111  1  0.001258  0.502842  0.652962  1
  O  O112  1  0.654205  0.999558  0.500669  1
  O  O113  1  0.000681  0.652690  0.503153  1
  O  O114  1  0.000968  0.844538  0.501689  1
  Si  Si115  1  0.195246  0.924749  0.526878  1
  O  O116  1  0.156167  0.999195  0.498594  1
  Si  Si117  1  0.694159  0.972426  0.575172  1
  Si  Si118  1  0.027909  0.692112  0.427106  1
  Si  Si119  1  0.075830  0.804966  0.528950  1
  Si  Si120  1  0.806104  0.924849  0.473498  1
  Si  Si121  1  0.308960  0.973687  0.421123  1
  Si  Si122  1  0.973341  0.690999  0.578905  1
  Si  Si123  1  0.926026  0.805179  0.474479  1
  O  O124  1  0.846197  0.999310  0.500547  1
  O  O125  1  0.640120  0.640353  0.953691  1
  O  O126  1  0.453252  0.860680  0.860808  1
  O  O127  1  0.140686  0.546847  0.858480  1
  O  O128  1  0.540912  0.750809  0.913011  1
  O  O129  1  0.914901  0.542973  0.748741  1
  O  O130  1  0.412785  0.961269  0.751556  1
  O  O131  1  0.250274  0.586571  0.958409  1
  O  O132  1  0.750144  0.540948  0.912331  1
  O  O133  1  0.540555  0.914478  0.751791  1
  O  O134  1  0.042228  0.591325  0.747332  1
  O  O135  1  0.412522  0.749956  0.959420  1
  O  O136  1  0.999907  0.502100  0.844129  1
  Si  Si137  1  0.472586  0.806468  0.926273  1
  Si  Si138  1  0.574311  0.694314  0.973019  1
  Si  Si139  1  0.974262  0.579604  0.691336  1
  Si  Si140  1  0.472155  0.926702  0.807697  1
  Si  Si141  1  0.194018  0.526426  0.924731  1
  Si  Si142  1  0.693606  0.573982  0.972416  1
  Si  Si143  1  0.574734  0.973882  0.695026  1
  Si  Si144  1  0.074418  0.530206  0.803763  1
