# generated using pymatgen
data_SiO2
_symmetry_space_group_name_H-M   'P 1'
_cell_length_a   13.14554189
_cell_length_b   13.22046939
_cell_length_c   12.47604033
_cell_angle_alpha   90.00000000
_cell_angle_beta   114.84200000
_cell_angle_gamma   90.00000000
_symmetry_Int_Tables_number   1
_chemical_formula_structural   SiO2
_chemical_formula_sum   'Si36 O72'
_cell_volume   1967.5886114
_cell_formula_units_Z   36
loop_
 _symmetry_equiv_pos_site_id
 _symmetry_equiv_pos_as_xyz
  1  'x, y, z'
loop_
 _atom_site_type_symbol
 _atom_site_label
 _atom_site_symmetry_multiplicity
 _atom_site_fract_x
 _atom_site_fract_y
 _atom_site_fract_z
 _atom_site_occupancy
  O  O1  1  0.181457  0.139972  0.008568  1
  O  O2  1  0.491309  0.322165  0.598473  1
  O  O3  1  0.386861  0.191318  0.095332  1
  O  O4  1  0.117710  0.308317  0.905148  1
  O  O5  1  0.293940  0.135209  0.229659  1
  O  O6  1  0.396437  0.185134  0.445974  1
  O  O7  1  0.106817  0.314499  0.554112  1
  O  O8  1  0.184180  0.135954  0.357461  1
  O  O9  1  0.011967  0.177675  0.401701  1
  Si  Si10  1  0.428871  0.296323  0.070403  1
  Si  Si11  1  0.075751  0.203335  0.929889  1
  Si  Si12  1  0.056189  0.116484  0.322741  1
  Si  Si13  1  0.300349  0.115965  0.108517  1
  Si  Si14  1  0.302076  0.116051  0.357066  1
  O  O15  1  0.010358  0.146799  0.810555  1
  Si  Si16  1  0.001531  0.244369  0.500012  1
  O  O17  1  0.003120  0.216708  0.001096  1
  O  O18  1  0.323237  0.640328  0.991311  1
  O  O19  1  0.323269  0.359366  0.990801  1
  O  O20  1  0.179483  0.499780  0.898319  1
  O  O21  1  0.209915  0.635025  0.770586  1
  O  O22  1  0.209492  0.364600  0.770172  1
  O  O23  1  0.175600  0.499917  0.617439  1
  O  O24  1  0.319466  0.635910  0.642816  1
  O  O25  1  0.319196  0.363865  0.642531  1
  O  O26  1  0.462533  0.499897  0.667221  1
  Si  Si27  1  0.204207  0.615846  0.892008  1
  Si  Si28  1  0.204097  0.383752  0.891749  1
  Si  Si29  1  0.201530  0.616094  0.643092  1
  Si  Si30  1  0.201222  0.383673  0.642743  1
  Si  Si31  1  0.447477  0.616560  0.677657  1
  Si  Si32  1  0.447273  0.383261  0.677664  1
  O  O33  1  0.493507  0.646491  0.189611  1
  O  O34  1  0.492899  0.353175  0.189659  1
  O  O35  1  0.181773  0.859716  0.008080  1
  O  O36  1  0.117605  0.691289  0.905095  1
  O  O37  1  0.387244  0.808451  0.095591  1
  O  O38  1  0.293633  0.864622  0.229219  1
  Si  Si39  1  0.001815  0.755366  0.500436  1
  O  O40  1  0.107213  0.685399  0.554586  1
  O  O41  1  0.396012  0.814320  0.445358  1
  O  O42  1  0.183915  0.863735  0.357098  1
  O  O43  1  0.012118  0.822156  0.402095  1
  Si  Si44  1  0.075786  0.796397  0.929929  1
  O  O45  1  0.491258  0.677590  0.598197  1
  Si  Si46  1  0.428994  0.703422  0.070468  1
  Si  Si47  1  0.056010  0.883231  0.322754  1
  O  O48  1  0.009959  0.852846  0.810733  1
  Si  Si49  1  0.300463  0.883889  0.108299  1
  Si  Si50  1  0.301784  0.883597  0.356660  1
  O  O51  1  0.327622  0.999779  0.382300  1
  O  O52  1  0.003684  0.783277  0.001570  1
  O  O53  1  0.041152  0.999867  0.333579  1
  O  O54  1  0.325489  0.999938  0.102558  1
  O  O55  1  0.823568  0.140527  0.990970  1
  O  O56  1  0.512008  0.321994  0.401715  1
  O  O57  1  0.617745  0.191194  0.905350  1
  O  O58  1  0.886985  0.308573  0.095303  1
  O  O59  1  0.709648  0.135094  0.770434  1
  O  O60  1  0.991230  0.177617  0.598399  1
  O  O61  1  0.607009  0.185418  0.554454  1
  O  O62  1  0.896222  0.314410  0.445616  1
  O  O63  1  0.819247  0.135861  0.642701  1
  Si  Si64  1  0.704349  0.115919  0.892045  1
  Si  Si65  1  0.575545  0.296239  0.929848  1
  O  O66  1  0.992969  0.146625  0.189751  1
  Si  Si67  1  0.929085  0.203657  0.070525  1
  Si  Si68  1  0.947305  0.116484  0.677722  1
  Si  Si69  1  0.701297  0.116103  0.642984  1
  Si  Si70  1  0.501627  0.255378  0.500144  1
  O  O71  1  0.502835  0.283136  0.000716  1
  O  O72  1  0.681216  0.640154  0.008952  1
  O  O73  1  0.681358  0.359607  0.008389  1
  O  O74  1  0.825076  0.499934  0.102341  1
  O  O75  1  0.794259  0.635272  0.229849  1
  O  O76  1  0.793785  0.364583  0.229389  1
  O  O77  1  0.827844  0.499807  0.382381  1
  O  O78  1  0.684405  0.635907  0.357621  1
  O  O79  1  0.684088  0.363754  0.357261  1
  O  O80  1  0.541266  0.499833  0.333534  1
  Si  Si81  1  0.800203  0.615959  0.108530  1
  Si  Si82  1  0.800174  0.383887  0.108278  1
  Si  Si83  1  0.802304  0.616074  0.357202  1
  Si  Si84  1  0.801971  0.383624  0.356832  1
  Si  Si85  1  0.556372  0.616438  0.322658  1
  Si  Si86  1  0.556130  0.383200  0.322657  1
  O  O87  1  0.510836  0.647054  0.810488  1
  O  O88  1  0.510339  0.352765  0.810535  1
  O  O89  1  0.823715  0.859239  0.990499  1
  O  O90  1  0.886753  0.691232  0.095171  1
  O  O91  1  0.618014  0.808541  0.905617  1
  O  O92  1  0.709195  0.864516  0.769999  1
  O  O93  1  0.896638  0.685141  0.446126  1
  O  O94  1  0.606600  0.814584  0.553845  1
  O  O95  1  0.818980  0.863849  0.642431  1
  Si  Si96  1  0.929074  0.796165  0.070480  1
  Si  Si97  1  0.575646  0.703526  0.929892  1
  Si  Si98  1  0.947099  0.883177  0.677767  1
  Si  Si99  1  0.700994  0.883677  0.642612  1
  Si  Si100  1  0.704375  0.883779  0.891833  1
  O  O101  1  0.991390  0.821966  0.598859  1
  O  O102  1  0.992504  0.853116  0.189827  1
  O  O103  1  0.675366  0.999927  0.617405  1
  O  O104  1  0.511950  0.677694  0.401421  1
  O  O105  1  0.679927  0.999827  0.898568  1
  Si  Si106  1  0.501402  0.744353  0.499735  1
  O  O107  1  0.502314  0.716681  0.000187  1
  O  O108  1  0.962320  0.999802  0.667117  1
