# generated using pymatgen
data_SiO2
_symmetry_space_group_name_H-M   'P 1'
_cell_length_a   7.67612438
_cell_length_b   7.67900504
_cell_length_c   27.30479892
_cell_angle_alpha   90.00000000
_cell_angle_beta   90.00000000
_cell_angle_gamma   90.00000000
_symmetry_Int_Tables_number   1
_chemical_formula_structural   SiO2
_chemical_formula_sum   'Si32 O64'
_cell_volume   1609.48131356
_cell_formula_units_Z   32
loop_
 _symmetry_equiv_pos_site_id
 _symmetry_equiv_pos_as_xyz
  1  'x, y, z'
loop_
 _atom_site_type_symbol
 _atom_site_label
 _atom_site_symmetry_multiplicity
 _atom_site_fract_x
 _atom_site_fract_y
 _atom_site_fract_z
 _atom_site_occupancy
  O  O1  1  0.169268  0.010207  0.082483  1
  O  O2  1  0.670049  0.515009  0.581980  1
  O  O3  1  0.736152  0.419197  0.831990  1
  O  O4  1  0.238157  0.919793  0.332221  1
  O  O5  1  0.330247  0.985212  0.581775  1
  O  O6  1  0.830181  0.487775  0.082321  1
  O  O7  1  0.761685  0.580432  0.332295  1
  O  O8  1  0.264800  0.079677  0.832041  1
  O  O9  1  0.830212  0.011085  0.082398  1
  O  O10  1  0.330313  0.515011  0.581892  1
  O  O11  1  0.264791  0.419205  0.831870  1
  O  O12  1  0.761929  0.919748  0.332163  1
  O  O13  1  0.670085  0.985157  0.581844  1
  O  O14  1  0.169226  0.488591  0.082406  1
  O  O15  1  0.238369  0.580477  0.332379  1
  O  O16  1  0.736201  0.079644  0.832176  1
  O  O17  1  0.830586  0.984919  0.918184  1
  O  O18  1  0.330290  0.488139  0.417894  1
  O  O19  1  0.264793  0.579605  0.168163  1
  O  O20  1  0.761112  0.080793  0.667594  1
  O  O21  1  0.669630  0.011690  0.417687  1
  O  O22  1  0.170087  0.513604  0.917877  1
  O  O23  1  0.238698  0.419875  0.667659  1
  O  O24  1  0.735030  0.919442  0.168157  1
  O  O25  1  0.170101  0.984950  0.917998  1
  O  O26  1  0.669591  0.488253  0.417793  1
  O  O27  1  0.734974  0.579697  0.168087  1
  O  O28  1  0.239477  0.080799  0.667523  1
  O  O29  1  0.330335  0.011833  0.417759  1
  O  O30  1  0.830553  0.513582  0.918055  1
  O  O31  1  0.761954  0.419854  0.667752  1
  O  O32  1  0.264797  0.919465  0.168235  1
  O  O33  1  0.999974  0.026598  0.388693  1
  O  O34  1  0.500348  0.526508  0.889004  1
  O  O35  1  0.723228  0.249566  0.138809  1
  O  O36  1  0.222617  0.750335  0.638951  1
  O  O37  1  0.500363  0.972101  0.889135  1
  O  O38  1  0.999938  0.473586  0.388769  1
  O  O39  1  0.777849  0.750325  0.639022  1
  O  O40  1  0.275964  0.249537  0.138734  1
  O  O41  1  0.000169  0.974169  0.611256  1
  O  O42  1  0.499704  0.472009  0.110999  1
  O  O43  1  0.277794  0.749412  0.860925  1
  O  O44  1  0.776609  0.250103  0.361309  1
  O  O45  1  0.499733  0.026979  0.111064  1
  O  O46  1  0.000179  0.526650  0.611235  1
  O  O47  1  0.223343  0.250143  0.361356  1
  O  O48  1  0.723122  0.749393  0.861061  1
  O  O49  1  0.998798  0.749418  0.057083  1
  O  O50  1  0.500260  0.250123  0.561223  1
  O  O51  1  0.000374  0.249382  0.810833  1
  O  O52  1  0.499973  0.750238  0.307326  1
  O  O53  1  0.000402  0.249369  0.939189  1
  O  O54  1  0.499894  0.750069  0.442709  1
  O  O55  1  0.999902  0.749476  0.188832  1
  O  O56  1  0.500301  0.251156  0.692961  1
  O  O57  1  0.001185  0.491977  0.000399  1
  O  O58  1  0.500354  0.008182  0.499487  1
  O  O59  1  0.242643  0.248645  0.749535  1
  O  O60  1  0.757737  0.749412  0.250455  1
  O  O61  1  0.500447  0.492354  0.499611  1
  O  O62  1  0.001226  0.007106  0.000504  1
  O  O63  1  0.241942  0.749365  0.250529  1
  O  O64  1  0.757717  0.248528  0.749643  1
  Si  Si65  1  0.999713  0.548365  0.055100  1
  Si  Si66  1  0.500248  0.049565  0.555319  1
  Si  Si67  1  0.200859  0.249254  0.805321  1
  Si  Si68  1  0.701068  0.749980  0.305113  1
  Si  Si69  1  0.500274  0.450713  0.555424  1
  Si  Si70  1  0.999740  0.950484  0.055181  1
  Si  Si71  1  0.298873  0.749990  0.305167  1
  Si  Si72  1  0.799859  0.249226  0.805412  1
  Si  Si73  1  0.000517  0.449926  0.944625  1
  Si  Si74  1  0.500041  0.951218  0.444850  1
  Si  Si75  1  0.799365  0.749489  0.194642  1
  Si  Si76  1  0.299284  0.250263  0.694861  1
  Si  Si77  1  0.500037  0.548929  0.444945  1
  Si  Si78  1  0.000541  0.048838  0.944714  1
  Si  Si79  1  0.701309  0.250237  0.694946  1
  Si  Si80  1  0.200424  0.749463  0.194705  1
  Si  Si81  1  0.699441  0.948424  0.875157  1
  Si  Si82  1  0.199210  0.449382  0.375116  1
  Si  Si83  1  0.801001  0.949450  0.624958  1
  Si  Si84  1  0.300610  0.448761  0.125032  1
  Si  Si85  1  0.800765  0.050773  0.374958  1
  Si  Si86  1  0.301373  0.550285  0.874914  1
  Si  Si87  1  0.698833  0.050345  0.125071  1
  Si  Si88  1  0.199349  0.551161  0.624960  1
  Si  Si89  1  0.301396  0.948438  0.875028  1
  Si  Si90  1  0.800724  0.449360  0.375048  1
  Si  Si91  1  0.199386  0.949460  0.624902  1
  Si  Si92  1  0.698811  0.448735  0.125014  1
  Si  Si93  1  0.199220  0.050812  0.375009  1
  Si  Si94  1  0.699430  0.550258  0.875032  1
  Si  Si95  1  0.300643  0.050265  0.125092  1
  Si  Si96  1  0.801067  0.551141  0.625033  1
