# generated using pymatgen
data_SiO2
_symmetry_space_group_name_H-M   'P 1'
_cell_length_a   9.76585567
_cell_length_b   20.58166164
_cell_length_c   9.80798162
_cell_angle_alpha   90.00000000
_cell_angle_beta   96.89700000
_cell_angle_gamma   90.00000000
_symmetry_Int_Tables_number   1
_chemical_formula_structural   SiO2
_chemical_formula_sum   'Si32 O64'
_cell_volume   1957.1145148
_cell_formula_units_Z   32
loop_
 _symmetry_equiv_pos_site_id
 _symmetry_equiv_pos_as_xyz
  1  'x, y, z'
loop_
 _atom_site_type_symbol
 _atom_site_label
 _atom_site_symmetry_multiplicity
 _atom_site_fract_x
 _atom_site_fract_y
 _atom_site_fract_z
 _atom_site_occupancy
  O  O1  1  0.139412  0.290230  0.311052  1
  O  O2  1  0.640330  0.790438  0.311133  1
  O  O3  1  0.858552  0.290550  0.688995  1
  O  O4  1  0.359509  0.790354  0.689087  1
  O  O5  1  0.859429  0.709431  0.689026  1
  O  O6  1  0.358804  0.209476  0.689007  1
  O  O7  1  0.140254  0.709427  0.311071  1
  O  O8  1  0.639664  0.209376  0.311060  1
  O  O9  1  0.999000  0.335877  0.499844  1
  O  O10  1  0.499856  0.835882  0.500113  1
  O  O11  1  0.999843  0.663943  0.500035  1
  O  O12  1  0.499423  0.163942  0.500247  1
  O  O13  1  0.969959  0.381850  0.248414  1
  O  O14  1  0.470618  0.881887  0.248804  1
  O  O15  1  0.028416  0.381939  0.751067  1
  O  O16  1  0.529099  0.881895  0.751446  1
  O  O17  1  0.029021  0.617951  0.751409  1
  O  O18  1  0.528506  0.117956  0.751546  1
  O  O19  1  0.970534  0.617915  0.248758  1
  O  O20  1  0.470039  0.117913  0.248910  1
  O  O21  1  0.879507  0.270195  0.301545  1
  O  O22  1  0.380432  0.770129  0.301759  1
  O  O23  1  0.118454  0.270110  0.698215  1
  O  O24  1  0.619392  0.770178  0.698417  1
  O  O25  1  0.119327  0.729674  0.698356  1
  O  O26  1  0.618729  0.229695  0.698625  1
  O  O27  1  0.880366  0.729670  0.301700  1
  O  O28  1  0.379786  0.229657  0.301951  1
  O  O29  1  0.263862  0.099738  0.068858  1
  O  O30  1  0.763816  0.599910  0.069306  1
  O  O31  1  0.735600  0.099959  0.930537  1
  O  O32  1  0.235546  0.599781  0.930987  1
  O  O33  1  0.735830  0.899990  0.930855  1
  O  O34  1  0.234569  0.399922  0.931143  1
  O  O35  1  0.264092  0.899966  0.069170  1
  O  O36  1  0.762841  0.400017  0.069478  1
  O  O37  1  0.415409  0.999895  0.153707  1
  O  O38  1  0.914837  0.499907  0.153649  1
  O  O39  1  0.584298  0.999926  0.846464  1
  O  O40  1  0.083722  0.499912  0.846399  1
  O  O41  1  0.500047  0.087125  0.000336  1
  O  O42  1  0.008657  0.587125  0.000092  1
  O  O43  1  0.500018  0.912702  0.000142  1
  O  O44  1  0.998422  0.412701  0.999609  1
  O  O45  1  0.299825  0.316825  0.124166  1
  O  O46  1  0.800873  0.816960  0.124130  1
  O  O47  1  0.697947  0.317043  0.876072  1
  O  O48  1  0.198995  0.816901  0.876015  1
  O  O49  1  0.698863  0.682920  0.876017  1
  O  O50  1  0.198383  0.182865  0.875884  1
  O  O51  1  0.300737  0.682871  0.124139  1
  O  O52  1  0.800266  0.182922  0.123996  1
  O  O53  1  0.177038  0.211082  0.121429  1
  O  O54  1  0.677242  0.711374  0.121292  1
  O  O55  1  0.822018  0.211516  0.878912  1
  O  O56  1  0.322244  0.711224  0.878792  1
  O  O57  1  0.822440  0.788524  0.878842  1
  O  O58  1  0.321350  0.288566  0.878725  1
  O  O59  1  0.177434  0.788531  0.121337  1
  O  O60  1  0.676335  0.288493  0.121202  1
  O  O61  1  0.999533  0.135091  0.000012  1
  O  O62  1  0.499753  0.635094  0.000058  1
  O  O63  1  0.999958  0.864731  0.000046  1
  O  O64  1  0.498728  0.364726  0.000164  1
  Si  Si65  1  0.998256  0.320443  0.342577  1
  Si  Si66  1  0.499054  0.820453  0.342840  1
  Si  Si67  1  0.999872  0.320470  0.657142  1
  Si  Si68  1  0.500698  0.820462  0.657392  1
  Si  Si69  1  0.000659  0.679369  0.657314  1
  Si  Si70  1  0.500098  0.179396  0.657500  1
  Si  Si71  1  0.999016  0.679363  0.342756  1
  Si  Si72  1  0.498469  0.179348  0.342944  1
  Si  Si73  1  0.413342  0.074756  0.122473  1
  Si  Si74  1  0.913247  0.574775  0.122501  1
  Si  Si75  1  0.586100  0.074794  0.877677  1
  Si  Si76  1  0.086001  0.574769  0.877707  1
  Si  Si77  1  0.586318  0.925061  0.877692  1
  Si  Si78  1  0.085236  0.425044  0.877541  1
  Si  Si79  1  0.413561  0.925035  0.122482  1
  Si  Si80  1  0.912464  0.425054  0.122325  1
  Si  Si81  1  0.250131  0.263091  0.221460  1
  Si  Si82  1  0.750842  0.763262  0.221338  1
  Si  Si83  1  0.748167  0.263365  0.778922  1
  Si  Si84  1  0.248910  0.763187  0.778788  1
  Si  Si85  1  0.748918  0.736612  0.778813  1
  Si  Si86  1  0.248097  0.236615  0.778632  1
  Si  Si87  1  0.250849  0.736594  0.221363  1
  Si  Si88  1  0.750036  0.236591  0.221159  1
  Si  Si89  1  0.157490  0.154053  0.014577  1
  Si  Si90  1  0.657630  0.654228  0.014695  1
  Si  Si91  1  0.841684  0.154292  0.985332  1
  Si  Si92  1  0.341817  0.654114  0.985461  1
  Si  Si93  1  0.842047  0.845667  0.985441  1
  Si  Si94  1  0.340858  0.345621  0.985526  1
  Si  Si95  1  0.157852  0.845645  0.014672  1
  Si  Si96  1  0.656650  0.345704  0.014754  1
