# generated using pymatgen
data_SiO2
_symmetry_space_group_name_H-M   'P 1'
_cell_length_a   14.85382812
_cell_length_b   14.85520849
_cell_length_c   14.85039366
_cell_angle_alpha   90.00000000
_cell_angle_beta   90.00000000
_cell_angle_gamma   90.00000000
_symmetry_Int_Tables_number   1
_chemical_formula_structural   SiO2
_chemical_formula_sum   'Si48 O96'
_cell_volume   3276.83906072
_cell_formula_units_Z   48
loop_
 _symmetry_equiv_pos_site_id
 _symmetry_equiv_pos_as_xyz
  1  'x, y, z'
loop_
 _atom_site_type_symbol
 _atom_site_label
 _atom_site_symmetry_multiplicity
 _atom_site_fract_x
 _atom_site_fract_y
 _atom_site_fract_z
 _atom_site_occupancy
  O  O1  1  0.332597  0.332462  0.123388  1
  O  O2  1  0.225801  0.385223  0.000062  1
  O  O3  1  0.667493  0.332499  0.123399  1
  O  O4  1  0.623335  0.167402  0.167531  1
  O  O5  1  0.832589  0.376667  0.167548  1
  O  O6  1  0.167504  0.376651  0.167520  1
  O  O7  1  0.376781  0.167371  0.167507  1
  O  O8  1  0.500049  0.274238  0.114809  1
  O  O9  1  0.667506  0.123181  0.332625  1
  O  O10  1  0.274377  0.499906  0.114795  1
  O  O11  1  0.500054  0.114602  0.274356  1
  O  O12  1  0.000050  0.385231  0.225788  1
  O  O13  1  0.123333  0.332435  0.332616  1
  O  O14  1  0.614757  0.225689  0.000080  1
  Si  Si15  1  0.396737  0.249940  0.103406  1
  Si  Si16  1  0.103369  0.396597  0.250083  1
  Si  Si17  1  0.603368  0.249963  0.103423  1
  Si  Si18  1  0.896737  0.396619  0.250098  1
  Si  Si19  1  0.250073  0.396603  0.103407  1
  Si  Si20  1  0.396741  0.103216  0.250045  1
  Si  Si21  1  0.750030  0.396627  0.103424  1
  Si  Si22  1  0.603373  0.103236  0.250061  1
  O  O23  1  0.876781  0.332465  0.332640  1
  O  O24  1  0.332593  0.123164  0.332596  1
  O  O25  1  0.885363  0.499926  0.274405  1
  O  O26  1  0.725748  0.499936  0.114808  1
  O  O27  1  0.114764  0.499901  0.274390  1
  O  O28  1  0.774316  0.385240  0.000082  1
  O  O29  1  0.385362  0.225668  0.000062  1
  O  O30  1  0.885366  0.274157  0.500082  1
  Si  Si31  1  0.103385  0.249861  0.603410  1
  Si  Si32  1  0.103371  0.249870  0.396721  1
  Si  Si33  1  0.750091  0.103216  0.603424  1
  Si  Si34  1  0.750076  0.103229  0.396737  1
  Si  Si35  1  0.250048  0.103198  0.603403  1
  Si  Si36  1  0.250032  0.103204  0.396715  1
  O  O37  1  0.832621  0.167351  0.623401  1
  O  O38  1  0.832599  0.167372  0.376754  1
  O  O39  1  0.167496  0.167336  0.376741  1
  O  O40  1  0.167515  0.167330  0.623385  1
  O  O41  1  0.274319  0.114584  0.500058  1
  O  O42  1  0.725804  0.114603  0.500083  1
  O  O43  1  0.114761  0.274136  0.500066  1
  Si  Si44  1  0.896753  0.249879  0.603424  1
  O  O45  1  0.000052  0.225595  0.385333  1
  O  O46  1  0.000068  0.225584  0.614811  1
  Si  Si47  1  0.896739  0.249893  0.396736  1
  O  O48  1  0.332615  0.332464  0.876740  1
  O  O49  1  0.667511  0.332486  0.876756  1
  O  O50  1  0.623343  0.167386  0.832635  1
  O  O51  1  0.832610  0.376660  0.832624  1
  O  O52  1  0.167523  0.376645  0.832603  1
  O  O53  1  0.376790  0.167372  0.832612  1
  O  O54  1  0.500063  0.274232  0.885331  1
  Si  Si55  1  0.603387  0.103226  0.750099  1
  Si  Si56  1  0.750043  0.396619  0.896737  1
  O  O57  1  0.500072  0.114596  0.725785  1
  O  O58  1  0.332616  0.123157  0.667516  1
  O  O59  1  0.000067  0.385221  0.774358  1
  Si  Si60  1  0.250087  0.396602  0.896720  1
  Si  Si61  1  0.396754  0.103214  0.750077  1
  O  O62  1  0.725759  0.499925  0.885339  1
  Si  Si63  1  0.396748  0.249937  0.896718  1
  Si  Si64  1  0.103382  0.396589  0.750047  1
  Si  Si65  1  0.603380  0.249955  0.896735  1
  Si  Si66  1  0.896750  0.396603  0.750064  1
  O  O67  1  0.123345  0.332426  0.667515  1
  O  O68  1  0.667530  0.123174  0.667545  1
  O  O69  1  0.876789  0.332441  0.667532  1
  O  O70  1  0.114772  0.499892  0.725730  1
  O  O71  1  0.274388  0.499906  0.885326  1
  O  O72  1  0.885370  0.499907  0.725743  1
  O  O73  1  0.832620  0.623182  0.167528  1
  O  O74  1  0.623350  0.832471  0.167511  1
  O  O75  1  0.167527  0.623162  0.167517  1
  O  O76  1  0.376800  0.832446  0.167504  1
  Si  Si77  1  0.396759  0.749877  0.103404  1
  O  O78  1  0.332625  0.667347  0.123383  1
  O  O79  1  0.667530  0.667378  0.123394  1
  O  O80  1  0.876798  0.667393  0.332618  1
  Si  Si81  1  0.103389  0.603207  0.250075  1
  O  O82  1  0.225818  0.614596  0.000056  1
  O  O83  1  0.614772  0.774164  0.000068  1
  Si  Si84  1  0.896756  0.603228  0.250087  1
  O  O85  1  0.614770  0.999933  0.225744  1
  O  O86  1  0.000072  0.614593  0.225778  1
  O  O87  1  0.500078  0.885240  0.274347  1
  O  O88  1  0.500077  0.725601  0.114805  1
  O  O89  1  0.385369  0.999910  0.225730  1
  Si  Si90  1  0.750054  0.603237  0.103411  1
  Si  Si91  1  0.603394  0.896626  0.250051  1
  Si  Si92  1  0.250094  0.603213  0.103401  1
  Si  Si93  1  0.396762  0.896606  0.250039  1
  Si  Si94  1  0.603390  0.749900  0.103413  1
  O  O95  1  0.332625  0.876650  0.332597  1
  O  O96  1  0.667534  0.876669  0.332608  1
  O  O97  1  0.123350  0.667363  0.332611  1
  O  O98  1  0.774338  0.614614  0.000067  1
  O  O99  1  0.385378  0.774145  0.000060  1
  O  O100  1  0.832639  0.832471  0.623393  1
  O  O101  1  0.832633  0.832490  0.376747  1
  O  O102  1  0.167544  0.832444  0.623385  1
  O  O103  1  0.167536  0.832453  0.376732  1
  O  O104  1  0.774380  0.999927  0.385342  1
  Si  Si105  1  0.896764  0.749959  0.396721  1
  Si  Si106  1  0.250067  0.896588  0.603402  1
  Si  Si107  1  0.750097  0.896619  0.396728  1
  Si  Si108  1  0.750107  0.896606  0.603416  1
  Si  Si109  1  0.103396  0.749932  0.396714  1
  Si  Si110  1  0.103402  0.749925  0.603401  1
  O  O111  1  0.000089  0.774220  0.614801  1
  O  O112  1  0.000082  0.774233  0.385322  1
  O  O113  1  0.774393  0.999912  0.614810  1
  O  O114  1  0.114779  0.725658  0.500056  1
  O  O115  1  0.725822  0.885229  0.500073  1
  O  O116  1  0.274343  0.885211  0.500057  1
  O  O117  1  0.885384  0.725681  0.500063  1
  Si  Si118  1  0.250059  0.896594  0.396715  1
  Si  Si119  1  0.896770  0.749942  0.603409  1
  O  O120  1  0.225751  0.999896  0.385325  1
  O  O121  1  0.225764  0.999891  0.614794  1
  O  O122  1  0.832626  0.623173  0.832603  1
  O  O123  1  0.623355  0.832459  0.832627  1
  O  O124  1  0.167536  0.623159  0.832592  1
  O  O125  1  0.376805  0.832444  0.832614  1
  O  O126  1  0.332631  0.667347  0.876735  1
  O  O127  1  0.667534  0.667367  0.876744  1
  O  O128  1  0.332636  0.876646  0.667518  1
  O  O129  1  0.876807  0.667371  0.667506  1
  O  O130  1  0.000080  0.614582  0.774344  1
  Si  Si131  1  0.103394  0.603199  0.750038  1
  O  O132  1  0.500086  0.885235  0.725782  1
  O  O133  1  0.500081  0.725595  0.885326  1
  Si  Si134  1  0.750061  0.603229  0.896723  1
  Si  Si135  1  0.603400  0.896617  0.750090  1
  Si  Si136  1  0.250100  0.603212  0.896713  1
  Si  Si137  1  0.396768  0.896604  0.750079  1
  Si  Si138  1  0.603395  0.749890  0.896725  1
  Si  Si139  1  0.896762  0.603213  0.750044  1
  Si  Si140  1  0.396763  0.749876  0.896716  1
  O  O141  1  0.385376  0.999908  0.774390  1
  O  O142  1  0.123355  0.667351  0.667498  1
  O  O143  1  0.614777  0.999921  0.774407  1
  O  O144  1  0.667544  0.876658  0.667537  1
