# generated using pymatgen
data_SiO2
_symmetry_space_group_name_H-M   'P 1'
_cell_length_a   13.84767239
_cell_length_b   13.61426734
_cell_length_c   7.41091504
_cell_angle_alpha   90.00000000
_cell_angle_beta   102.42100000
_cell_angle_gamma   90.00000000
_symmetry_Int_Tables_number   1
_chemical_formula_structural   SiO2
_chemical_formula_sum   'Si24 O48'
_cell_volume   1364.4471625
_cell_formula_units_Z   24
loop_
 _symmetry_equiv_pos_site_id
 _symmetry_equiv_pos_as_xyz
  1  'x, y, z'
loop_
 _atom_site_type_symbol
 _atom_site_label
 _atom_site_symmetry_multiplicity
 _atom_site_fract_x
 _atom_site_fract_y
 _atom_site_fract_z
 _atom_site_occupancy
  O  O1  1  0.681431  0.129027  0.642676  1
  O  O2  1  0.181410  0.629036  0.642566  1
  O  O3  1  0.315299  0.129111  0.357533  1
  O  O4  1  0.815280  0.629102  0.357452  1
  O  O5  1  0.315339  0.870727  0.357325  1
  O  O6  1  0.815318  0.370736  0.357313  1
  O  O7  1  0.681434  0.870754  0.642883  1
  O  O8  1  0.181411  0.370751  0.642835  1
  O  O9  1  0.498367  0.136018  0.500174  1
  O  O10  1  0.998336  0.636026  0.500072  1
  O  O11  1  0.498348  0.863785  0.500511  1
  O  O12  1  0.998316  0.363785  0.500476  1
  O  O13  1  0.621107  0.173627  0.289435  1
  O  O14  1  0.121077  0.673579  0.289302  1
  O  O15  1  0.375611  0.173705  0.710830  1
  O  O16  1  0.875578  0.673754  0.710713  1
  O  O17  1  0.375841  0.826089  0.710654  1
  O  O18  1  0.875808  0.326060  0.710613  1
  O  O19  1  0.621063  0.826058  0.289668  1
  O  O20  1  0.121030  0.326098  0.289603  1
  O  O21  1  0.602029  0.999852  0.412390  1
  O  O22  1  0.101986  0.499850  0.412373  1
  O  O23  1  0.394550  0.999952  0.587825  1
  O  O24  1  0.894526  0.499961  0.587828  1
  O  O25  1  0.660043  0.147522  0.972125  1
  O  O26  1  0.160051  0.647521  0.972001  1
  O  O27  1  0.336562  0.147483  0.028035  1
  O  O28  1  0.836570  0.647487  0.027946  1
  O  O29  1  0.336499  0.852376  0.027688  1
  O  O30  1  0.836528  0.352345  0.027690  1
  O  O31  1  0.660045  0.852336  0.972386  1
  O  O32  1  0.160071  0.352360  0.972342  1
  O  O33  1  0.828247  0.180935  0.895133  1
  O  O34  1  0.328227  0.680963  0.895049  1
  O  O35  1  0.168426  0.180944  0.105086  1
  O  O36  1  0.668406  0.680915  0.105024  1
  O  O37  1  0.168422  0.818875  0.105005  1
  O  O38  1  0.668418  0.318883  0.104993  1
  O  O39  1  0.828238  0.818910  0.895374  1
  O  O40  1  0.328231  0.318898  0.895326  1
  O  O41  1  0.754795  0.999923  0.881975  1
  O  O42  1  0.254819  0.499933  0.881850  1
  O  O43  1  0.241833  0.999913  0.118411  1
  O  O44  1  0.741865  0.499902  0.118321  1
  O  O45  1  0.498304  0.230693  0.000268  1
  O  O46  1  0.006033  0.730690  0.000111  1
  O  O47  1  0.498282  0.769115  0.000430  1
  O  O48  1  0.998325  0.269116  0.000302  1
  Si  Si49  1  0.602623  0.112789  0.458334  1
  Si  Si50  1  0.102590  0.612789  0.458242  1
  Si  Si51  1  0.394074  0.112883  0.541914  1
  Si  Si52  1  0.894049  0.612887  0.541846  1
  Si  Si53  1  0.394025  0.887034  0.541794  1
  Si  Si54  1  0.894001  0.387040  0.541790  1
  Si  Si55  1  0.602612  0.886938  0.458542  1
  Si  Si56  1  0.102578  0.386941  0.458508  1
  Si  Si57  1  0.734027  0.113152  0.850799  1
  Si  Si58  1  0.234028  0.613159  0.850670  1
  Si  Si59  1  0.262628  0.113142  0.149478  1
  Si  Si60  1  0.762636  0.613139  0.149385  1
  Si  Si61  1  0.262626  0.886676  0.149287  1
  Si  Si62  1  0.762645  0.386662  0.149253  1
  Si  Si63  1  0.734014  0.886686  0.850998  1
  Si  Si64  1  0.234024  0.386693  0.850922  1
  Si  Si65  1  0.610333  0.218827  0.091651  1
  Si  Si66  1  0.110341  0.718811  0.091556  1
  Si  Si67  1  0.386310  0.218838  0.908652  1
  Si  Si68  1  0.886321  0.718852  0.908577  1
  Si  Si69  1  0.386341  0.781000  0.908480  1
  Si  Si70  1  0.886362  0.280973  0.908458  1
  Si  Si71  1  0.610318  0.780967  0.091798  1
  Si  Si72  1  0.110336  0.280998  0.091757  1
