# generated using pymatgen
data_SiO2
_symmetry_space_group_name_H-M   'P 1'
_cell_length_a   18.31049018
_cell_length_b   14.19980673
_cell_length_c   7.51561045
_cell_angle_alpha   90.00000000
_cell_angle_beta   90.00000000
_cell_angle_gamma   90.00000000
_symmetry_Int_Tables_number   1
_chemical_formula_structural   SiO2
_chemical_formula_sum   'Si36 O72'
_cell_volume   1954.09946377
_cell_formula_units_Z   36
loop_
 _symmetry_equiv_pos_site_id
 _symmetry_equiv_pos_as_xyz
  1  'x, y, z'
loop_
 _atom_site_type_symbol
 _atom_site_label
 _atom_site_symmetry_multiplicity
 _atom_site_fract_x
 _atom_site_fract_y
 _atom_site_fract_z
 _atom_site_occupancy
  O  O1  1  0.998381  0.203944  0.255391  1
  O  O2  1  0.501736  0.703945  0.255393  1
  O  O3  1  0.998323  0.795810  0.255389  1
  O  O4  1  0.501793  0.295810  0.255387  1
  O  O5  1  0.001735  0.795809  0.744934  1
  O  O6  1  0.498380  0.295809  0.744931  1
  O  O7  1  0.001793  0.203944  0.744936  1
  O  O8  1  0.498323  0.703943  0.744938  1
  O  O9  1  0.107365  0.091870  0.257797  1
  O  O10  1  0.609925  0.591763  0.268995  1
  O  O11  1  0.890191  0.091762  0.268994  1
  O  O12  1  0.392751  0.591871  0.257798  1
  O  O13  1  0.107367  0.907771  0.257766  1
  O  O14  1  0.609922  0.408107  0.269022  1
  O  O15  1  0.890194  0.908106  0.269022  1
  O  O16  1  0.392749  0.407771  0.257765  1
  O  O17  1  0.892751  0.907884  0.742527  1
  O  O18  1  0.390191  0.407990  0.731329  1
  O  O19  1  0.109925  0.907991  0.731331  1
  O  O20  1  0.607365  0.407883  0.742527  1
  O  O21  1  0.892749  0.091983  0.742558  1
  O  O22  1  0.390194  0.591647  0.731303  1
  O  O23  1  0.109921  0.091648  0.731302  1
  O  O24  1  0.607367  0.591983  0.742560  1
  O  O25  1  0.220954  0.999837  0.161084  1
  O  O26  1  0.723942  0.499917  0.177314  1
  O  O27  1  0.776174  0.999917  0.177313  1
  O  O28  1  0.279162  0.499838  0.161083  1
  O  O29  1  0.779163  0.999916  0.839239  1
  O  O30  1  0.276174  0.499836  0.823011  1
  O  O31  1  0.223942  0.999836  0.823012  1
  O  O32  1  0.720953  0.499916  0.839241  1
  O  O33  1  0.250107  0.249843  0.008051  1
  O  O34  1  0.750009  0.749910  0.992274  1
  O  O35  1  0.750107  0.249910  0.992271  1
  O  O36  1  0.250009  0.749843  0.008053  1
  O  O37  1  0.317438  0.093890  0.997108  1
  O  O38  1  0.817406  0.594006  0.003219  1
  O  O39  1  0.682709  0.094006  0.003219  1
  O  O40  1  0.182678  0.593890  0.997108  1
  O  O41  1  0.317406  0.905747  0.997105  1
  O  O42  1  0.817438  0.405864  0.003216  1
  O  O43  1  0.682678  0.905863  0.003216  1
  O  O44  1  0.182709  0.405747  0.997105  1
  O  O45  1  0.128451  0.262324  0.165484  1
  O  O46  1  0.633569  0.760833  0.175401  1
  O  O47  1  0.866547  0.260832  0.175399  1
  O  O48  1  0.371665  0.762325  0.165485  1
  O  O49  1  0.128359  0.737292  0.165478  1
  O  O50  1  0.633660  0.239062  0.175398  1
  O  O51  1  0.866456  0.739061  0.175399  1
  O  O52  1  0.371756  0.237293  0.165475  1
  O  O53  1  0.871665  0.737429  0.834841  1
  O  O54  1  0.366547  0.238920  0.824924  1
  O  O55  1  0.133569  0.738921  0.824926  1
  O  O56  1  0.628450  0.237429  0.834839  1
  O  O57  1  0.871757  0.262461  0.834845  1
  O  O58  1  0.366456  0.760692  0.824927  1
  O  O59  1  0.133659  0.260692  0.824925  1
  O  O60  1  0.628359  0.762460  0.834849  1
  O  O61  1  0.175981  0.999811  0.492076  1
  O  O62  1  0.675981  0.499943  0.508250  1
  O  O63  1  0.824135  0.999942  0.508249  1
  O  O64  1  0.324135  0.499811  0.492075  1
  O  O65  1  0.096575  0.216997  0.495703  1
  O  O66  1  0.596514  0.717087  0.504626  1
  O  O67  1  0.903602  0.217087  0.504624  1
  O  O68  1  0.403541  0.716997  0.495705  1
  O  O69  1  0.096514  0.782666  0.495701  1
  O  O70  1  0.596575  0.282757  0.504620  1
  O  O71  1  0.903541  0.782757  0.504622  1
  O  O72  1  0.403602  0.282666  0.495698  1
  Si  Si73  1  0.082839  0.196814  0.291662  1
  Si  Si74  1  0.585568  0.696974  0.299594  1
  Si  Si75  1  0.914548  0.196974  0.299591  1
  Si  Si76  1  0.417277  0.696814  0.291664  1
  Si  Si77  1  0.082787  0.802851  0.291658  1
  Si  Si78  1  0.585620  0.302870  0.299590  1
  Si  Si79  1  0.914496  0.802870  0.299592  1
  Si  Si80  1  0.417329  0.302852  0.291656  1
  Si  Si81  1  0.917277  0.802940  0.708663  1
  Si  Si82  1  0.414548  0.302780  0.700730  1
  Si  Si83  1  0.085568  0.802780  0.700732  1
  Si  Si84  1  0.582839  0.302939  0.708661  1
  Si  Si85  1  0.917328  0.196903  0.708667  1
  Si  Si86  1  0.414496  0.696883  0.700734  1
  Si  Si87  1  0.085620  0.196884  0.700733  1
  Si  Si88  1  0.582787  0.696902  0.708669  1
  Si  Si89  1  0.172764  0.295662  0.998472  1
  Si  Si90  1  0.672686  0.795786  0.001855  1
  Si  Si91  1  0.827429  0.295785  0.001853  1
  Si  Si92  1  0.327351  0.795661  0.998473  1
  Si  Si93  1  0.172686  0.703968  0.998472  1
  Si  Si94  1  0.672764  0.204092  0.001851  1
  Si  Si95  1  0.827352  0.704092  0.001853  1
  Si  Si96  1  0.327430  0.203969  0.998470  1
  Si  Si97  1  0.153570  0.999818  0.288749  1
  Si  Si98  1  0.655925  0.499936  0.303462  1
  Si  Si99  1  0.844191  0.999935  0.303461  1
  Si  Si100  1  0.346546  0.499819  0.288748  1
  Si  Si101  1  0.846546  0.999935  0.711577  1
  Si  Si102  1  0.344191  0.499818  0.696863  1
  Si  Si103  1  0.155924  0.999818  0.696863  1
  Si  Si104  1  0.653570  0.499935  0.711577  1
  Si  Si105  1  0.272318  0.999831  0.994833  1
  Si  Si106  1  0.772318  0.499922  0.005492  1
  Si  Si107  1  0.727797  0.999923  0.005492  1
  Si  Si108  1  0.227798  0.499832  0.994833  1
