# generated using pymatgen
data_SiO2
_symmetry_space_group_name_H-M   'P 1'
_cell_length_a   18.48339648
_cell_length_b   18.48318193
_cell_length_c   27.63734077
_cell_angle_alpha   90.00000000
_cell_angle_beta   90.00000000
_cell_angle_gamma   90.00000000
_symmetry_Int_Tables_number   1
_chemical_formula_structural   SiO2
_chemical_formula_sum   'Si128 O256'
_cell_volume   9441.79944296
_cell_formula_units_Z   128
loop_
 _symmetry_equiv_pos_site_id
 _symmetry_equiv_pos_as_xyz
  1  'x, y, z'
loop_
 _atom_site_type_symbol
 _atom_site_label
 _atom_site_symmetry_multiplicity
 _atom_site_fract_x
 _atom_site_fract_y
 _atom_site_fract_z
 _atom_site_occupancy
  O  O1  1  0.405167  0.264669  0.187639  1
  O  O2  1  0.735308  0.405126  0.187654  1
  O  O3  1  0.594856  0.264671  0.187649  1
  O  O4  1  0.264709  0.405127  0.187639  1
  O  O5  1  0.094858  0.235261  0.312392  1
  O  O6  1  0.764707  0.094818  0.312405  1
  O  O7  1  0.905171  0.235258  0.312401  1
  O  O8  1  0.235308  0.094815  0.312392  1
  O  O9  1  0.404042  0.233722  0.276321  1
  O  O10  1  0.766255  0.403998  0.276336  1
  O  O11  1  0.595972  0.233725  0.276331  1
  O  O12  1  0.233765  0.404000  0.276323  1
  O  O13  1  0.095978  0.266213  0.223710  1
  O  O14  1  0.733765  0.095934  0.223721  1
  O  O15  1  0.904045  0.266210  0.223721  1
  O  O16  1  0.266256  0.095933  0.223708  1
  Si  Si17  1  0.916747  0.346448  0.205419  1
  O  O18  1  0.500007  0.318611  0.242789  1
  Si  Si19  1  0.346492  0.083232  0.205403  1
  Si  Si20  1  0.416743  0.153486  0.294625  1
  O  O21  1  0.000012  0.181322  0.257248  1
  Si  Si22  1  0.846491  0.416700  0.294640  1
  O  O23  1  0.363148  0.363108  0.248297  1
  O  O24  1  0.636867  0.363110  0.248311  1
  O  O25  1  0.136871  0.136825  0.251730  1
  O  O26  1  0.863150  0.136822  0.251743  1
  O  O27  1  0.400316  0.239329  0.095269  1
  O  O28  1  0.760670  0.400272  0.095283  1
  O  O29  1  0.599724  0.239334  0.095279  1
  O  O30  1  0.239361  0.400274  0.095268  1
  O  O31  1  0.367255  0.367222  0.064332  1
  O  O32  1  0.632786  0.367226  0.064336  1
  O  O33  1  0.500022  0.318084  0.060947  1
  O  O34  1  0.723560  0.406956  0.000029  1
  Si  Si35  1  0.653530  0.083236  0.205414  1
  O  O36  1  0.318106  0.499980  0.060940  1
  Si  Si37  1  0.583274  0.153488  0.294635  1
  O  O38  1  0.500015  0.186504  0.148328  1
  O  O39  1  0.813480  0.499972  0.148347  1
  O  O40  1  0.137343  0.370429  0.163605  1
  O  O41  1  0.629559  0.137306  0.163613  1
  O  O42  1  0.862675  0.370422  0.163620  1
  O  O43  1  0.370468  0.137302  0.163602  1
  O  O44  1  0.000011  0.357091  0.194321  1
  Si  Si45  1  0.153531  0.416702  0.294630  1
  Si  Si46  1  0.083278  0.346451  0.205408  1
  O  O47  1  0.500007  0.142845  0.305722  1
  O  O48  1  0.857132  0.499965  0.305739  1
  O  O49  1  0.395799  0.104177  0.250014  1
  O  O50  1  0.895801  0.395756  0.250030  1
  O  O51  1  0.604222  0.104182  0.250024  1
  O  O52  1  0.104223  0.395758  0.250019  1
  Si  Si53  1  0.416876  0.298237  0.239590  1
  Si  Si54  1  0.701740  0.416835  0.239606  1
  Si  Si55  1  0.583140  0.298239  0.239599  1
  Si  Si56  1  0.298277  0.416835  0.239590  1
  Si  Si57  1  0.083145  0.201696  0.260440  1
  Si  Si58  1  0.798276  0.083100  0.260455  1
  Si  Si59  1  0.916879  0.201692  0.260450  1
  Si  Si60  1  0.201743  0.083100  0.260441  1
  Si  Si61  1  0.416851  0.298953  0.055377  1
  Si  Si62  1  0.701066  0.416807  0.055380  1
  Si  Si63  1  0.583195  0.298954  0.055384  1
  Si  Si64  1  0.298980  0.416808  0.055373  1
  Si  Si65  1  0.205524  0.416599  0.146978  1
  Si  Si66  1  0.583391  0.205489  0.146985  1
  Si  Si67  1  0.794496  0.416595  0.146995  1
  Si  Si68  1  0.416637  0.205485  0.146977  1
  O  O69  1  0.681941  0.499981  0.060944  1
  O  O70  1  0.681372  0.499969  0.242805  1
  O  O71  1  0.186544  0.499977  0.148328  1
  O  O72  1  0.142892  0.499967  0.305729  1
  O  O73  1  0.318648  0.499967  0.242789  1
  O  O74  1  0.593060  0.276481  0.000030  1
  O  O75  1  0.407009  0.276480  0.000022  1
  O  O76  1  0.276510  0.406959  0.000017  1
  O  O77  1  0.099722  0.260611  0.404764  1
  O  O78  1  0.739361  0.099684  0.404776  1
  O  O79  1  0.900316  0.260615  0.404773  1
  O  O80  1  0.260664  0.099682  0.404765  1
  O  O81  1  0.099744  0.260651  0.595262  1
  O  O82  1  0.739397  0.099707  0.595287  1
  O  O83  1  0.900339  0.260647  0.595275  1
  O  O84  1  0.260702  0.099709  0.595272  1
  O  O85  1  0.132781  0.132730  0.435717  1
  O  O86  1  0.867253  0.132734  0.435720  1
  O  O87  1  0.132807  0.132757  0.564332  1
  O  O88  1  0.867276  0.132755  0.564333  1
  O  O89  1  0.000019  0.181872  0.439106  1
  Si  Si90  1  0.083426  0.294494  0.646971  1
  Si  Si91  1  0.916672  0.294490  0.646981  1
  O  O92  1  0.000039  0.181895  0.560942  1
  O  O93  1  0.093054  0.223495  0.500017  1
  O  O94  1  0.776504  0.093020  0.500029  1
  O  O95  1  0.907003  0.223497  0.500025  1
  O  O96  1  0.223554  0.093019  0.500022  1
  O  O97  1  0.000016  0.313429  0.351710  1
  Si  Si98  1  0.705576  0.083382  0.647001  1
  O  O99  1  0.000049  0.313476  0.648324  1
  O  O100  1  0.362673  0.129516  0.336426  1
  O  O101  1  0.870466  0.362625  0.336438  1
  O  O102  1  0.637341  0.129517  0.336438  1
  O  O103  1  0.129561  0.362627  0.336429  1
  O  O104  1  0.362727  0.129547  0.663609  1
  O  O105  1  0.870505  0.362672  0.663610  1
  O  O106  1  0.637396  0.129551  0.663628  1
  O  O107  1  0.129601  0.362675  0.663594  1
  Si  Si108  1  0.083191  0.201004  0.444667  1
  Si  Si109  1  0.798974  0.083153  0.444675  1
  Si  Si110  1  0.916848  0.201004  0.444673  1
  Si  Si111  1  0.201063  0.083152  0.444671  1
  Si  Si112  1  0.083210  0.201025  0.555372  1
  Si  Si113  1  0.798997  0.083171  0.555381  1
  Si  Si114  1  0.916867  0.201027  0.555379  1
  Si  Si115  1  0.201084  0.083172  0.555377  1
  Si  Si116  1  0.294492  0.083349  0.353054  1
  Si  Si117  1  0.916639  0.294445  0.353062  1
  Si  Si118  1  0.705523  0.083352  0.353068  1
  Si  Si119  1  0.083393  0.294445  0.353055  1
  Si  Si120  1  0.294543  0.083382  0.646980  1
  O  O121  1  0.313522  0.000004  0.648329  1
  O  O122  1  0.686594  0.000005  0.648353  1
  O  O123  1  0.181958  0.000000  0.560945  1
  O  O124  1  0.764764  0.094851  0.687660  1
  O  O125  1  0.094899  0.235309  0.687632  1
  O  O126  1  0.235361  0.094852  0.687642  1
  O  O127  1  0.905209  0.235308  0.687646  1
  O  O128  1  0.735367  0.405157  0.812407  1
  O  O129  1  0.405211  0.264715  0.812395  1
  O  O130  1  0.264769  0.405162  0.812382  1
  O  O131  1  0.594899  0.264714  0.812409  1
  O  O132  1  0.733818  0.095979  0.776343  1
  O  O133  1  0.096028  0.266259  0.776312  1
  O  O134  1  0.266299  0.095978  0.776327  1
  O  O135  1  0.904100  0.266257  0.776328  1
  O  O136  1  0.766302  0.404042  0.723721  1
  O  O137  1  0.404096  0.233759  0.723714  1
  O  O138  1  0.233820  0.404041  0.723698  1
  O  O139  1  0.596027  0.233760  0.723729  1
  Si  Si140  1  0.416793  0.153520  0.705413  1
  O  O141  1  0.000061  0.181370  0.742784  1
  Si  Si142  1  0.083330  0.346496  0.794616  1
  O  O143  1  0.500061  0.318650  0.757254  1
  O  O144  1  0.863204  0.136871  0.748313  1
  O  O145  1  0.136919  0.136871  0.748295  1
  O  O146  1  0.636922  0.363149  0.751749  1
  O  O147  1  0.363205  0.363149  0.751725  1
  O  O148  1  0.400345  0.239364  0.904768  1
  O  O149  1  0.760710  0.400289  0.904777  1
  O  O150  1  0.599749  0.239356  0.904780  1
  O  O151  1  0.239410  0.400291  0.904756  1
  O  O152  1  0.367288  0.367245  0.935718  1
  O  O153  1  0.632814  0.367239  0.935721  1
  Si  Si154  1  0.346533  0.083275  0.794635  1
  O  O155  1  0.500047  0.318103  0.939111  1
  O  O156  1  0.681967  0.499994  0.939111  1
  O  O157  1  0.318134  0.499997  0.939108  1
  Si  Si158  1  0.916799  0.346494  0.794631  1
  O  O159  1  0.818703  0.000009  0.742811  1
  O  O160  1  0.500051  0.186544  0.851714  1
  O  O161  1  0.137403  0.370462  0.836416  1
  O  O162  1  0.629604  0.137347  0.836446  1
  O  O163  1  0.862734  0.370462  0.836437  1
  O  O164  1  0.370504  0.137351  0.836433  1
  Si  Si165  1  0.653583  0.083274  0.794649  1
  O  O166  1  0.500061  0.142878  0.694329  1
  Si  Si167  1  0.846536  0.416742  0.705412  1
  O  O168  1  0.000067  0.357140  0.805715  1
  O  O169  1  0.104277  0.395803  0.750005  1
  O  O170  1  0.604273  0.104215  0.750038  1
  O  O171  1  0.895846  0.395799  0.750021  1
  O  O172  1  0.395842  0.104215  0.750024  1
  Si  Si173  1  0.798332  0.083143  0.739611  1
  Si  Si174  1  0.083193  0.201742  0.739583  1
  Si  Si175  1  0.201790  0.083143  0.739592  1
  Si  Si176  1  0.916928  0.201742  0.739596  1
  Si  Si177  1  0.701795  0.416874  0.760458  1
  Si  Si178  1  0.416928  0.298277  0.760443  1
  Si  Si179  1  0.298333  0.416876  0.760430  1
  Si  Si180  1  0.583193  0.298279  0.760457  1
  Si  Si181  1  0.416875  0.298970  0.944671  1
  Si  Si182  1  0.701094  0.416820  0.944674  1
  Si  Si183  1  0.583218  0.298970  0.944678  1
  Si  Si184  1  0.299005  0.416824  0.944667  1
  Si  Si185  1  0.205586  0.416626  0.853045  1
  Si  Si186  1  0.583428  0.205526  0.853069  1
  Si  Si187  1  0.794550  0.416623  0.853069  1
  Si  Si188  1  0.416674  0.205532  0.853059  1
  Si  Si189  1  0.153584  0.416745  0.705393  1
  Si  Si190  1  0.583324  0.153522  0.705427  1
  O  O191  1  0.181419  0.000010  0.742792  1
  O  O192  1  0.642945  0.000009  0.805748  1
  O  O193  1  0.357172  0.000010  0.805735  1
  O  O194  1  0.264710  0.594818  0.187649  1
  O  O195  1  0.594859  0.735262  0.187659  1
  O  O196  1  0.735313  0.594817  0.187663  1
  O  O197  1  0.405171  0.735259  0.187651  1
  O  O198  1  0.235307  0.905125  0.312402  1
  O  O199  1  0.905167  0.764669  0.312417  1
  O  O200  1  0.764706  0.905125  0.312414  1
  O  O201  1  0.094857  0.764668  0.312409  1
  O  O202  1  0.233767  0.595934  0.276335  1
  O  O203  1  0.595976  0.766213  0.276341  1
  O  O204  1  0.766258  0.595935  0.276346  1
  O  O205  1  0.404043  0.766210  0.276332  1
  O  O206  1  0.266254  0.903996  0.223719  1
  O  O207  1  0.904046  0.733723  0.223736  1
  O  O208  1  0.733765  0.904000  0.223730  1
  O  O209  1  0.095976  0.733724  0.223726  1
  O  O210  1  0.500012  0.681322  0.242803  1
  O  O211  1  0.000009  0.818610  0.257269  1
  O  O212  1  0.363152  0.636823  0.248310  1
  O  O213  1  0.636873  0.636827  0.248322  1
  O  O214  1  0.136867  0.863108  0.251747  1
  O  O215  1  0.863148  0.863107  0.251758  1
  O  O216  1  0.599726  0.760615  0.095288  1
  O  O217  1  0.239368  0.599687  0.095277  1
  O  O218  1  0.400320  0.760614  0.095279  1
  O  O219  1  0.760673  0.599683  0.095290  1
  O  O220  1  0.632791  0.632734  0.064337  1
  O  O221  1  0.367262  0.632733  0.064332  1
  Si  Si222  1  0.583274  0.846451  0.294644  1
  O  O223  1  0.500027  0.681872  0.060946  1
  Si  Si224  1  0.153533  0.583235  0.294642  1
  O  O225  1  0.407013  0.723495  0.000027  1
  O  O226  1  0.723562  0.593017  0.000034  1
  O  O227  1  0.500016  0.813431  0.148342  1
  O  O228  1  0.862679  0.629517  0.163630  1
  O  O229  1  0.370465  0.862625  0.163615  1
  O  O230  1  0.137347  0.629519  0.163616  1
  O  O231  1  0.629560  0.862629  0.163624  1
  O  O232  1  0.357130  0.999964  0.194315  1
  O  O233  1  0.000013  0.642845  0.194334  1
  O  O234  1  0.500007  0.857090  0.305732  1
  O  O235  1  0.604221  0.895758  0.250033  1
  O  O236  1  0.104227  0.604181  0.250031  1
  O  O237  1  0.395797  0.895756  0.250024  1
  O  O238  1  0.895803  0.604179  0.250042  1
  Si  Si239  1  0.298277  0.583101  0.239599  1
  Si  Si240  1  0.583145  0.701697  0.239610  1
  Si  Si241  1  0.701745  0.583102  0.239613  1
  Si  Si242  1  0.416880  0.701693  0.239603  1
  Si  Si243  1  0.201740  0.916833  0.260450  1
  Si  Si244  1  0.916877  0.798238  0.260467  1
  Si  Si245  1  0.798276  0.916834  0.260464  1
  Si  Si246  1  0.083142  0.798237  0.260459  1
  Si  Si247  1  0.583199  0.701006  0.055385  1
  Si  Si248  1  0.298981  0.583154  0.055378  1
  Si  Si249  1  0.416856  0.701004  0.055379  1
  Si  Si250  1  0.701071  0.583153  0.055384  1
  Si  Si251  1  0.794498  0.583351  0.147001  1
  Si  Si252  1  0.416639  0.794446  0.146990  1
  Si  Si253  1  0.205529  0.583354  0.146985  1
  Si  Si254  1  0.583393  0.794447  0.146997  1
  Si  Si255  1  0.653530  0.916703  0.205423  1
  Si  Si256  1  0.083280  0.653488  0.205420  1
  Si  Si257  1  0.346489  0.916698  0.205413  1
  Si  Si258  1  0.916749  0.653487  0.205431  1
  Si  Si259  1  0.846493  0.583233  0.294652  1
  Si  Si260  1  0.416743  0.846448  0.294635  1
  O  O261  1  0.593064  0.723494  0.000034  1
  O  O262  1  0.818647  0.999967  0.257265  1
  O  O263  1  0.642890  0.999968  0.194325  1
  O  O264  1  0.181370  0.999966  0.257249  1
  O  O265  1  0.276512  0.593019  0.000023  1
  O  O266  1  0.900314  0.739328  0.404787  1
  O  O267  1  0.260667  0.900271  0.404774  1
  O  O268  1  0.099721  0.739331  0.404779  1
  O  O269  1  0.739357  0.900272  0.404784  1
  O  O270  1  0.900338  0.739365  0.595289  1
  O  O271  1  0.260697  0.900293  0.595281  1
  O  O272  1  0.099743  0.739365  0.595278  1
  O  O273  1  0.739398  0.900295  0.595294  1
  O  O274  1  0.867250  0.867221  0.435723  1
  O  O275  1  0.132782  0.867224  0.435721  1
  O  O276  1  0.867276  0.867245  0.564336  1
  O  O277  1  0.132801  0.867248  0.564335  1
  O  O278  1  0.818100  0.999980  0.439113  1
  O  O279  1  0.000017  0.818084  0.439110  1
  O  O280  1  0.000036  0.818106  0.560945  1
  Si  Si281  1  0.916672  0.705533  0.646998  1
  O  O282  1  0.907002  0.776480  0.500034  1
  O  O283  1  0.223552  0.906959  0.500029  1
  O  O284  1  0.093053  0.776484  0.500028  1
  O  O285  1  0.776503  0.906959  0.500035  1
  O  O286  1  0.313476  0.999971  0.351710  1
  O  O287  1  0.818124  0.999999  0.560944  1
  O  O288  1  0.000015  0.686502  0.351729  1
  O  O289  1  0.000049  0.686548  0.648342  1
  Si  Si290  1  0.294540  0.916627  0.646988  1
  O  O291  1  0.637340  0.870427  0.336446  1
  O  O292  1  0.129560  0.637304  0.336444  1
  O  O293  1  0.362672  0.870422  0.336435  1
  O  O294  1  0.870468  0.637302  0.336453  1
  O  O295  1  0.637395  0.870462  0.663636  1
  O  O296  1  0.129603  0.637353  0.663609  1
  O  O297  1  0.362725  0.870466  0.663618  1
  O  O298  1  0.870505  0.637351  0.663624  1
  Si  Si299  1  0.916846  0.798952  0.444679  1
  Si  Si300  1  0.201061  0.916806  0.444677  1
  Si  Si301  1  0.083190  0.798953  0.444673  1
  Si  Si302  1  0.798974  0.916807  0.444680  1
  Si  Si303  1  0.916865  0.798971  0.555385  1
  Si  Si304  1  0.201083  0.916827  0.555383  1
  Si  Si305  1  0.083208  0.798977  0.555379  1
  Si  Si306  1  0.798995  0.916825  0.555385  1
  Si  Si307  1  0.705520  0.916596  0.353074  1
  Si  Si308  1  0.083392  0.705486  0.353073  1
  Si  Si309  1  0.294493  0.916593  0.353062  1
  Si  Si310  1  0.916638  0.705485  0.353079  1
  Si  Si311  1  0.705577  0.916627  0.647007  1
  Si  Si312  1  0.083426  0.705533  0.646989  1
  O  O313  1  0.181935  0.999979  0.439112  1
  O  O314  1  0.686540  0.999974  0.351723  1
  O  O315  1  0.905209  0.764716  0.687662  1
  O  O316  1  0.235360  0.905161  0.687652  1
  O  O317  1  0.094897  0.764719  0.687649  1
  O  O318  1  0.764763  0.905161  0.687668  1
  O  O319  1  0.594901  0.735305  0.812418  1
  O  O320  1  0.264770  0.594850  0.812391  1
  O  O321  1  0.405211  0.735307  0.812406  1
  O  O322  1  0.735366  0.594850  0.812415  1
  O  O323  1  0.904097  0.733759  0.776343  1
  O  O324  1  0.266301  0.904043  0.776337  1
  O  O325  1  0.096029  0.733761  0.776328  1
  O  O326  1  0.733817  0.904041  0.776351  1
  O  O327  1  0.596026  0.766256  0.723738  1
  O  O328  1  0.233820  0.595981  0.723709  1
  O  O329  1  0.404097  0.766259  0.723724  1
  O  O330  1  0.766302  0.595975  0.723731  1
  Si  Si331  1  0.916799  0.653520  0.794643  1
  O  O332  1  0.000059  0.818652  0.742805  1
  O  O333  1  0.500062  0.681368  0.757266  1
  Si  Si334  1  0.346535  0.916743  0.794644  1
  O  O335  1  0.863201  0.863149  0.748328  1
  O  O336  1  0.136919  0.863152  0.748311  1
  O  O337  1  0.636921  0.636867  0.751759  1
  O  O338  1  0.363206  0.636871  0.751737  1
  O  O339  1  0.599753  0.760645  0.904788  1
  O  O340  1  0.239408  0.599706  0.904765  1
  O  O341  1  0.400346  0.760643  0.904778  1
  O  O342  1  0.760712  0.599702  0.904785  1
  O  O343  1  0.632816  0.632752  0.935722  1
  O  O344  1  0.367287  0.632751  0.935720  1
  O  O345  1  0.500049  0.681891  0.939110  1
  O  O346  1  0.857175  0.500010  0.694322  1
  O  O347  1  0.681422  0.500007  0.757269  1
  O  O348  1  0.500054  0.813472  0.851728  1
  O  O349  1  0.862734  0.629545  0.836447  1
  O  O350  1  0.370509  0.862671  0.836445  1
  O  O351  1  0.137403  0.629549  0.836427  1
  O  O352  1  0.629604  0.862670  0.836457  1
  O  O353  1  0.500060  0.857140  0.694338  1
  O  O354  1  0.142947  0.500013  0.694304  1
  Si  Si355  1  0.083330  0.653522  0.794629  1
  O  O356  1  0.000066  0.642878  0.805727  1
  O  O357  1  0.895847  0.604216  0.750033  1
  O  O358  1  0.395842  0.895801  0.750033  1
  O  O359  1  0.104276  0.604216  0.750017  1
  O  O360  1  0.604272  0.895799  0.750047  1
  Si  Si361  1  0.916927  0.798278  0.739614  1
  Si  Si362  1  0.201791  0.916877  0.739602  1
  Si  Si363  1  0.083192  0.798282  0.739602  1
  Si  Si364  1  0.798330  0.916876  0.739619  1
  Si  Si365  1  0.583194  0.701738  0.760467  1
  Si  Si366  1  0.298335  0.583143  0.760439  1
  Si  Si367  1  0.416929  0.701743  0.760455  1
  Si  Si368  1  0.701793  0.583141  0.760466  1
  Si  Si369  1  0.583220  0.701021  0.944679  1
  Si  Si370  1  0.299007  0.583169  0.944672  1
  Si  Si371  1  0.416877  0.701024  0.944673  1
  Si  Si372  1  0.701092  0.583166  0.944679  1
  Si  Si373  1  0.794551  0.583379  0.853075  1
  Si  Si374  1  0.416677  0.794487  0.853071  1
  Si  Si375  1  0.205585  0.583381  0.853052  1
  Si  Si376  1  0.583431  0.794489  0.853080  1
  Si  Si377  1  0.846536  0.583275  0.705423  1
  Si  Si378  1  0.416793  0.846497  0.705422  1
  Si  Si379  1  0.153584  0.583277  0.705404  1
  Si  Si380  1  0.583324  0.846493  0.705436  1
  Si  Si381  1  0.653582  0.916741  0.794657  1
  O  O382  1  0.186603  0.500003  0.851701  1
  O  O383  1  0.318706  0.500010  0.757237  1
  O  O384  1  0.813531  0.500001  0.851726  1
