# generated using pymatgen
data_SiO2
_symmetry_space_group_name_H-M   'P 1'
_cell_length_a   5.06483519
_cell_length_b   22.04793445
_cell_length_c   14.10770455
_cell_angle_alpha   90.00000000
_cell_angle_beta   90.00000000
_cell_angle_gamma   90.00000000
_symmetry_Int_Tables_number   1
_chemical_formula_structural   SiO2
_chemical_formula_sum   'Si28 O56'
_cell_volume   1575.39543659
_cell_formula_units_Z   28
loop_
 _symmetry_equiv_pos_site_id
 _symmetry_equiv_pos_as_xyz
  1  'x, y, z'
loop_
 _atom_site_type_symbol
 _atom_site_label
 _atom_site_symmetry_multiplicity
 _atom_site_fract_x
 _atom_site_fract_y
 _atom_site_fract_z
 _atom_site_occupancy
  O  O1  1  0.760235  0.809406  0.197075  1
  O  O2  1  0.758978  0.690432  0.196989  1
  O  O3  1  0.257028  0.190552  0.802478  1
  O  O4  1  0.257087  0.309347  0.802435  1
  O  O5  1  0.973890  0.749899  0.063016  1
  O  O6  1  0.474872  0.750023  0.081188  1
  O  O7  1  0.044895  0.250007  0.936824  1
  O  O8  1  0.543802  0.249915  0.918022  1
  O  O9  1  0.259341  0.690203  0.949018  1
  O  O10  1  0.259264  0.809632  0.948936  1
  O  O11  1  0.757385  0.309547  0.050667  1
  O  O12  1  0.758396  0.190378  0.050708  1
  O  O13  1  0.753237  0.601847  0.325551  1
  O  O14  1  0.756269  0.898144  0.325544  1
  O  O15  1  0.248788  0.398247  0.674632  1
  O  O16  1  0.250010  0.101662  0.674703  1
  O  O17  1  0.965210  0.587862  0.162866  1
  O  O18  1  0.466975  0.597604  0.176778  1
  O  O19  1  0.967958  0.911892  0.162944  1
  O  O20  1  0.469762  0.902345  0.176723  1
  O  O21  1  0.962168  0.401749  0.822964  1
  O  O22  1  0.460478  0.412006  0.837640  1
  O  O23  1  0.963064  0.098032  0.822908  1
  O  O24  1  0.461392  0.088001  0.837872  1
  O  O25  1  0.755809  0.561045  0.514242  1
  O  O26  1  0.756709  0.938849  0.514290  1
  O  O27  1  0.255180  0.438779  0.486113  1
  O  O28  1  0.255715  0.061147  0.486124  1
  O  O29  1  0.999156  0.509318  0.380247  1
  O  O30  1  0.500517  0.510965  0.381216  1
  O  O31  1  0.988041  0.992867  0.379898  1
  O  O32  1  0.489307  0.986629  0.382126  1
  O  O33  1  0.034146  0.494937  0.620189  1
  O  O34  1  0.532797  0.484469  0.618085  1
  O  O35  1  0.034707  0.005068  0.620230  1
  O  O36  1  0.533359  0.015373  0.618106  1
  O  O37  1  0.751871  0.415828  0.983568  1
  O  O38  1  0.753858  0.084112  0.983653  1
  O  O39  1  0.252401  0.583916  0.016529  1
  O  O40  1  0.254278  0.915909  0.016503  1
  O  O41  1  0.499967  0.394949  0.135383  1
  O  O42  1  0.999960  0.396940  0.136951  1
  O  O43  1  0.500419  0.105083  0.134974  1
  O  O44  1  0.000348  0.102647  0.137543  1
  O  O45  1  0.493286  0.601995  0.861965  1
  O  O46  1  0.993513  0.605276  0.865805  1
  O  O47  1  0.494432  0.897737  0.861908  1
  O  O48  1  0.994617  0.894755  0.865853  1
  O  O49  1  0.255883  0.432027  0.287269  1
  O  O50  1  0.259611  0.067690  0.287284  1
  O  O51  1  0.751342  0.567484  0.712967  1
  O  O52  1  0.752351  0.932446  0.713025  1
  O  O53  1  0.258745  0.495554  0.136578  1
  O  O54  1  0.260878  0.004278  0.136541  1
  O  O55  1  0.756829  0.504022  0.863420  1
  O  O56  1  0.756995  0.995876  0.863564  1
  Si  Si57  1  0.742598  0.749942  0.136065  1
  Si  Si58  1  0.275639  0.249956  0.863469  1
  Si  Si59  1  0.242303  0.749934  0.008895  1
  Si  Si60  1  0.775793  0.249955  0.990582  1
  Si  Si61  1  0.736664  0.620622  0.216940  1
  Si  Si62  1  0.739188  0.879242  0.216994  1
  Si  Si63  1  0.232698  0.379156  0.783041  1
  Si  Si64  1  0.233554  0.120729  0.783123  1
  Si  Si65  1  0.752613  0.549435  0.402594  1
  Si  Si66  1  0.748725  0.950508  0.402664  1
  Si  Si67  1  0.267091  0.450549  0.597733  1
  Si  Si68  1  0.267903  0.049382  0.597738  1
  Si  Si69  1  0.752800  0.378474  0.077818  1
  Si  Si70  1  0.754297  0.121434  0.077932  1
  Si  Si71  1  0.249342  0.621213  0.922202  1
  Si  Si72  1  0.250315  0.878638  0.922165  1
  Si  Si73  1  0.252421  0.468950  0.383266  1
  Si  Si74  1  0.248443  0.030888  0.383329  1
  Si  Si75  1  0.767280  0.530694  0.616998  1
  Si  Si76  1  0.768108  0.969219  0.617024  1
  Si  Si77  1  0.253267  0.428907  0.175014  1
  Si  Si78  1  0.254905  0.070903  0.175055  1
  Si  Si79  1  0.749406  0.570699  0.825137  1
  Si  Si80  1  0.750276  0.929218  0.825189  1
  Si  Si81  1  0.236213  0.565719  0.123345  1
  Si  Si82  1  0.238660  0.934111  0.123323  1
  Si  Si83  1  0.732661  0.433886  0.876751  1
  Si  Si84  1  0.733563  0.066026  0.876872  1
