# generated using pymatgen
data_SiO2
_symmetry_space_group_name_H-M   'P 1'
_cell_length_a   17.04919116
_cell_length_b   17.04860003
_cell_length_c   12.60163115
_cell_angle_alpha   90.00000000
_cell_angle_beta   90.00000000
_cell_angle_gamma   120.00000000
_symmetry_Int_Tables_number   1
_chemical_formula_structural   SiO2
_chemical_formula_sum   'Si54 O108'
_cell_volume   3172.12211445
_cell_formula_units_Z   54
loop_
 _symmetry_equiv_pos_site_id
 _symmetry_equiv_pos_as_xyz
  1  'x, y, z'
loop_
 _atom_site_type_symbol
 _atom_site_label
 _atom_site_symmetry_multiplicity
 _atom_site_fract_x
 _atom_site_fract_y
 _atom_site_fract_z
 _atom_site_occupancy
  O  O1  1  0.084187  0.395057  0.178798  1
  O  O2  1  0.309959  0.395012  0.178702  1
  O  O3  1  0.084211  0.395051  0.821329  1
  O  O4  1  0.310023  0.395109  0.821254  1
  O  O5  1  0.134068  0.470111  0.000045  1
  Si  Si6  1  0.182042  0.182451  0.000025  1
  O  O7  1  0.252654  0.253133  0.300390  1
  O  O8  1  0.252695  0.253135  0.699669  1
  Si  Si9  1  0.180647  0.181024  0.621937  1
  Si  Si10  1  0.297407  0.297886  0.808776  1
  Si  Si11  1  0.332759  0.486283  0.877424  1
  O  O12  1  0.235531  0.235821  0.100068  1
  O  O13  1  0.235367  0.235992  0.899988  1
  O  O14  1  0.085855  0.172685  0.357569  1
  O  O15  1  0.172328  0.086347  0.357502  1
  O  O16  1  0.172436  0.086346  0.642526  1
  O  O17  1  0.085895  0.172630  0.642558  1
  O  O18  1  0.202203  0.202624  0.500032  1
  O  O19  1  0.086889  0.174671  0.000238  1
  O  O20  1  0.174396  0.087353  0.999802  1
  Si  Si21  1  0.152622  0.486232  0.122638  1
  Si  Si22  1  0.152624  0.486256  0.877453  1
  Si  Si23  1  0.180597  0.181044  0.378132  1
  Si  Si24  1  0.297430  0.297836  0.191292  1
  Si  Si25  1  0.332738  0.486222  0.122608  1
  O  O26  1  0.252239  0.747177  0.139044  1
  O  O27  1  0.252284  0.505430  0.139026  1
  O  O28  1  0.252204  0.747144  0.861022  1
  O  O29  1  0.252302  0.505499  0.861041  1
  O  O30  1  0.309963  0.915288  0.178693  1
  O  O31  1  0.084134  0.689414  0.178819  1
  O  O32  1  0.310076  0.915276  0.821234  1
  O  O33  1  0.084103  0.689461  0.821369  1
  O  O34  1  0.134023  0.664279  0.000068  1
  O  O35  1  0.143550  0.571935  0.149964  1
  O  O36  1  0.143482  0.571926  0.850147  1
  O  O37  1  0.252679  0.999928  0.300308  1
  O  O38  1  0.252826  0.999937  0.699575  1
  O  O39  1  0.235474  0.999947  0.099978  1
  O  O40  1  0.235585  0.999932  0.899891  1
  O  O41  1  0.085911  0.913519  0.357506  1
  O  O42  1  0.086025  0.913513  0.642528  1
  O  O43  1  0.202257  0.999932  0.499963  1
  O  O44  1  0.086983  0.912517  0.999822  1
  Si  Si45  1  0.297553  0.999931  0.808684  1
  Si  Si46  1  0.152586  0.666700  0.122657  1
  Si  Si47  1  0.152541  0.666700  0.877470  1
  Si  Si48  1  0.182101  0.999935  0.999876  1
  Si  Si49  1  0.332717  0.846780  0.877417  1
  Si  Si50  1  0.180723  0.999930  0.621880  1
  Si  Si51  1  0.297416  0.999930  0.191211  1
  Si  Si52  1  0.180629  0.999930  0.378076  1
  Si  Si53  1  0.332707  0.846830  0.122605  1
  O  O54  1  0.504989  0.252668  0.139060  1
  O  O55  1  0.504988  0.252700  0.861035  1
  O  O56  1  0.394639  0.310425  0.178826  1
  O  O57  1  0.394616  0.084555  0.178710  1
  O  O58  1  0.394560  0.310372  0.821384  1
  O  O59  1  0.394736  0.084570  0.821244  1
  O  O60  1  0.469666  0.335560  0.000081  1
  O  O61  1  0.663907  0.134543  0.000100  1
  O  O62  1  0.335165  0.470121  0.000010  1
  O  O63  1  0.469726  0.134492  0.000018  1
  O  O64  1  0.571531  0.427909  0.149975  1
  O  O65  1  0.571534  0.143992  0.149980  1
  O  O66  1  0.571472  0.427917  0.850159  1
  O  O67  1  0.571617  0.144069  0.850139  1
  Si  Si68  1  0.485808  0.333144  0.122670  1
  Si  Si69  1  0.485869  0.153064  0.877430  1
  Si  Si70  1  0.485812  0.153016  0.122619  1
  Si  Si71  1  0.485762  0.333142  0.877482  1
  Si  Si72  1  0.666316  0.153073  0.122692  1
  Si  Si73  1  0.666354  0.153081  0.877506  1
  O  O74  1  0.494011  0.747147  0.139107  1
  O  O75  1  0.494086  0.747160  0.861073  1
  O  O76  1  0.604402  0.689433  0.178844  1
  O  O77  1  0.604336  0.915284  0.178796  1
  O  O78  1  0.604491  0.689472  0.821389  1
  O  O79  1  0.604372  0.915295  0.821401  1
  O  O80  1  0.529387  0.664287  0.000102  1
  O  O81  1  0.335144  0.865354  0.000004  1
  O  O82  1  0.529285  0.865325  0.000089  1
  O  O83  1  0.663867  0.529738  0.000055  1
  O  O84  1  0.427517  0.571909  0.149965  1
  O  O85  1  0.427458  0.855867  0.149967  1
  O  O86  1  0.427568  0.571957  0.850148  1
  O  O87  1  0.427465  0.855787  0.850127  1
  Si  Si88  1  0.513228  0.666694  0.122689  1
  Si  Si89  1  0.513165  0.846796  0.122681  1
  Si  Si90  1  0.513295  0.666708  0.877501  1
  Si  Si91  1  0.513198  0.846790  0.877494  1
  Si  Si92  1  0.666300  0.513616  0.122648  1
  Si  Si93  1  0.666278  0.513589  0.877464  1
  O  O94  1  0.746805  0.252720  0.139120  1
  O  O95  1  0.746772  0.494430  0.139040  1
  O  O96  1  0.746864  0.252713  0.861088  1
  O  O97  1  0.746721  0.494355  0.861054  1
  O  O98  1  0.689001  0.084582  0.178801  1
  O  O99  1  0.914913  0.310450  0.178860  1
  O  O100  1  0.689030  0.084580  0.821412  1
  O  O101  1  0.914955  0.310403  0.821396  1
  O  O102  1  0.865039  0.335588  0.000114  1
  O  O103  1  0.855534  0.427960  0.149978  1
  O  O104  1  0.855545  0.427916  0.850160  1
  O  O105  1  0.999500  0.235888  0.100173  1
  Si  Si106  1  0.846522  0.333164  0.877513  1
  O  O107  1  0.999532  0.253146  0.300488  1
  O  O108  1  0.913009  0.086339  0.357584  1
  O  O109  1  0.913057  0.086322  0.642616  1
  O  O110  1  0.999497  0.202594  0.500109  1
  Si  Si111  1  0.999465  0.181019  0.378200  1
  O  O112  1  0.912067  0.087345  0.000111  1
  Si  Si113  1  0.999514  0.180997  0.622003  1
  Si  Si114  1  0.846470  0.333177  0.122701  1
  Si  Si115  1  0.999512  0.182446  0.000147  1
  Si  Si116  1  0.999585  0.297845  0.808847  1
  O  O117  1  0.999576  0.253095  0.699754  1
  Si  Si118  1  0.999539  0.297880  0.191380  1
  O  O119  1  0.999618  0.235912  0.900085  1
  O  O120  1  0.914868  0.604856  0.178710  1
  O  O121  1  0.689035  0.604791  0.178808  1
  O  O122  1  0.914830  0.604762  0.821270  1
  O  O123  1  0.689068  0.604792  0.821334  1
  O  O124  1  0.864962  0.529744  0.000023  1
  O  O125  1  0.746315  0.746712  0.300486  1
  O  O126  1  0.746216  0.999919  0.300477  1
  Si  Si127  1  0.817001  0.817400  0.000143  1
  Si  Si128  1  0.999538  0.817417  0.000027  1
  O  O129  1  0.746417  0.746751  0.699752  1
  O  O130  1  0.763555  0.763956  0.100170  1
  Si  Si131  1  0.818446  0.818853  0.622002  1
  Si  Si132  1  0.999526  0.702022  0.191294  1
  O  O133  1  0.763640  0.763934  0.900083  1
  O  O134  1  0.826606  0.913518  0.357586  1
  O  O135  1  0.913099  0.827165  0.357566  1
  O  O136  1  0.913201  0.827235  0.642554  1
  O  O137  1  0.826652  0.913524  0.642620  1
  O  O138  1  0.796834  0.797260  0.500107  1
  O  O139  1  0.999649  0.764041  0.100069  1
  O  O140  1  0.824649  0.912500  0.000113  1
  O  O141  1  0.912158  0.825186  0.000225  1
  Si  Si142  1  0.846436  0.513646  0.122621  1
  O  O143  1  0.746277  0.999930  0.699772  1
  Si  Si144  1  0.846398  0.513586  0.877436  1
  O  O145  1  0.999514  0.797237  0.500033  1
  Si  Si146  1  0.701587  0.701980  0.191377  1
  Si  Si147  1  0.701517  0.999923  0.191348  1
  Si  Si148  1  0.701559  0.999929  0.808883  1
  Si  Si149  1  0.701670  0.702008  0.808845  1
  Si  Si150  1  0.818377  0.818833  0.378198  1
  O  O151  1  0.999488  0.746723  0.699670  1
  O  O152  1  0.763513  0.999918  0.100175  1
  O  O153  1  0.763512  0.999917  0.900100  1
  O  O154  1  0.796732  0.999926  0.500115  1
  O  O155  1  0.999468  0.746734  0.300391  1
  Si  Si156  1  0.999558  0.818839  0.621937  1
  Si  Si157  1  0.999489  0.818819  0.378133  1
  Si  Si158  1  0.816949  0.999923  0.000136  1
  Si  Si159  1  0.999449  0.701972  0.808776  1
  Si  Si160  1  0.818334  0.999927  0.622012  1
  Si  Si161  1  0.818299  0.999927  0.378207  1
  O  O162  1  0.999338  0.763884  0.899988  1
