# generated using pymatgen
data_SiO2
_symmetry_space_group_name_H-M   'P 1'
_cell_length_a   12.62043465
_cell_length_b   12.61833605
_cell_length_c   30.78374832
_cell_angle_alpha   90.00000000
_cell_angle_beta   90.00000000
_cell_angle_gamma   120.00000000
_symmetry_Int_Tables_number   1
_chemical_formula_structural   SiO2
_chemical_formula_sum   'Si72 O144'
_cell_volume   4245.49694871
_cell_formula_units_Z   72
loop_
 _symmetry_equiv_pos_site_id
 _symmetry_equiv_pos_as_xyz
  1  'x, y, z'
loop_
 _atom_site_type_symbol
 _atom_site_label
 _atom_site_symmetry_multiplicity
 _atom_site_fract_x
 _atom_site_fract_y
 _atom_site_fract_z
 _atom_site_occupancy
  Si  Si1  1  0.001050  0.755225  0.293998  1
  O  O2  1  0.014706  0.317050  0.250434  1
  O  O3  1  0.014598  0.697607  0.250268  1
  O  O4  1  0.055797  0.666642  0.166595  1
  O  O5  1  0.055872  0.388832  0.166740  1
  O  O6  1  0.001550  0.356214  0.000120  1
  Si  Si7  1  0.089553  0.666287  0.116866  1
  Si  Si8  1  0.089541  0.422682  0.116998  1
  O  O9  1  0.084579  0.542237  0.226864  1
  Si  Si10  1  0.089466  0.667021  0.216370  1
  Si  Si11  1  0.089574  0.422351  0.216493  1
  O  O12  1  0.108004  0.892093  0.295067  1
  O  O13  1  0.107910  0.215338  0.295051  1
  O  O14  1  0.120655  0.560028  0.112639  1
  Si  Si15  1  0.001063  0.245403  0.294042  1
  O  O16  1  0.023292  0.689352  0.333251  1
  O  O17  1  0.001261  0.643955  0.000005  1
  Si  Si18  1  0.422676  0.333904  0.039356  1
  Si  Si19  1  0.334056  0.422314  0.116881  1
  Si  Si20  1  0.244796  0.245320  0.293970  1
  O  O21  1  0.311040  0.976996  0.333140  1
  Si  Si22  1  0.333042  0.422124  0.216387  1
  Si  Si23  1  0.333074  0.910574  0.216314  1
  Si  Si24  1  0.423336  0.087792  0.039246  1
  Si  Si25  1  0.334364  0.910887  0.116810  1
  O  O26  1  0.250285  0.124872  0.297771  1
  O  O27  1  0.417804  0.208248  0.035537  1
  O  O28  1  0.302512  0.985496  0.250202  1
  O  O29  1  0.302496  0.316674  0.250280  1
  O  O30  1  0.364437  0.347351  0.082943  1
  O  O31  1  0.365245  0.016324  0.082872  1
  O  O32  1  0.333523  0.388591  0.166650  1
  O  O33  1  0.333739  0.944391  0.166545  1
  O  O34  1  0.457725  0.915287  0.226858  1
  O  O35  1  0.457845  0.541951  0.226873  1
  O  O36  1  0.209314  0.417570  0.106523  1
  O  O37  1  0.209422  0.791124  0.106393  1
  O  O38  1  0.226760  0.773292  0.220664  1
  O  O39  1  0.226865  0.453278  0.220780  1
  O  O40  1  0.440415  0.559566  0.112560  1
  O  O41  1  0.440564  0.879704  0.112595  1
  Si  Si42  1  0.244886  0.998978  0.293937  1
  O  O43  1  0.310831  0.333232  0.333236  1
  O  O44  1  0.031916  0.681003  0.416209  1
  O  O45  1  0.031868  0.349787  0.416449  1
  O  O46  1  0.001648  0.721865  0.499930  1
  Si  Si47  1  0.002106  0.244006  0.549880  1
  Si  Si48  1  0.001821  0.755431  0.549703  1
  O  O49  1  0.083904  0.541446  0.368769  1
  Si  Si50  1  0.089449  0.667432  0.372484  1
  Si  Si51  1  0.089282  0.420943  0.372699  1
  Si  Si52  1  0.001679  0.244457  0.450376  1
  Si  Si53  1  0.001409  0.755688  0.450204  1
  O  O54  1  0.107485  0.893106  0.445866  1
  O  O55  1  0.107936  0.213471  0.445951  1
  O  O56  1  0.023162  0.332939  0.333455  1
  O  O57  1  0.001841  0.277906  0.500164  1
  Si  Si58  1  0.423607  0.332149  0.627221  1
  O  O59  1  0.335612  0.022394  0.666440  1
  Si  Si60  1  0.333250  0.911231  0.372453  1
  Si  Si61  1  0.333191  0.421169  0.372571  1
  Si  Si62  1  0.245202  0.244342  0.450146  1
  O  O63  1  0.335612  0.310037  0.666490  1
  Si  Si64  1  0.246455  0.000250  0.549586  1
  Si  Si65  1  0.246807  0.244017  0.549648  1
  Si  Si66  1  0.244793  0.999432  0.450078  1
  O  O67  1  0.459348  0.916814  0.369094  1
  O  O68  1  0.459017  0.541932  0.368998  1
  O  O69  1  0.352048  0.030664  0.583423  1
  O  O70  1  0.352432  0.318838  0.583506  1
  O  O71  1  0.319863  0.349669  0.416187  1
  O  O72  1  0.319465  0.968969  0.416084  1
  O  O73  1  0.453449  0.225149  0.628239  1
  O  O74  1  0.226357  0.774324  0.371342  1
  O  O75  1  0.226168  0.450969  0.371576  1
  O  O76  1  0.279697  0.277784  0.499861  1
  O  O77  1  0.279289  0.999861  0.499766  1
  O  O78  1  0.127056  0.249095  0.560186  1
  O  O79  1  0.126601  0.875442  0.560059  1
  O  O80  1  0.249689  0.124251  0.439664  1
  O  O81  1  0.215629  0.106662  0.553996  1
  Si  Si82  1  0.423431  0.088256  0.627126  1
  O  O83  1  0.018136  0.364356  0.917159  1
  O  O84  1  0.018190  0.652368  0.917059  1
  Si  Si85  1  0.001655  0.244418  0.706145  1
  Si  Si86  1  0.001633  0.754324  0.706023  1
  Si  Si87  1  0.089465  0.422147  0.960829  1
  Si  Si88  1  0.089335  0.665914  0.960778  1
  O  O89  1  0.119266  0.558973  0.961909  1
  Si  Si90  1  0.248009  0.244314  0.705869  1
  Si  Si91  1  0.248202  0.000602  0.705870  1
  Si  Si92  1  0.424349  0.333362  0.883013  1
  O  O93  1  0.357904  0.000171  0.999858  1
  Si  Si94  1  0.424686  0.332649  0.783493  1
  Si  Si95  1  0.424882  0.089165  0.783501  1
  O  O96  1  0.357355  0.355909  0.999889  1
  Si  Si97  1  0.424569  0.088749  0.883011  1
  O  O98  1  0.209985  0.416729  0.964424  1
  O  O99  1  0.209974  0.791714  0.964538  1
  O  O100  1  0.127465  0.249668  0.702219  1
  O  O101  1  0.127625  0.874710  0.702249  1
  O  O102  1  0.349650  0.983175  0.916879  1
  O  O103  1  0.349314  0.363902  0.916872  1
  O  O104  1  0.319461  0.302165  0.749518  1
  O  O105  1  0.319796  0.014299  0.749491  1
  O  O106  1  0.442653  0.558620  0.961568  1
  O  O107  1  0.442783  0.882017  0.961777  1
  O  O108  1  0.218179  0.107472  0.704829  1
  O  O109  1  0.390891  0.333016  0.833216  1
  O  O110  1  0.391086  0.055311  0.833231  1
  O  O111  1  0.419298  0.208471  0.893442  1
  O  O112  1  0.455835  0.226449  0.779199  1
  Si  Si113  1  0.335944  0.912094  0.960637  1
  Si  Si114  1  0.335679  0.421777  0.960523  1
  O  O115  1  0.645187  0.999576  0.000182  1
  Si  Si116  1  0.577827  0.910707  0.117017  1
  O  O117  1  0.875177  0.749858  0.297830  1
  O  O118  1  0.875101  0.124949  0.297742  1
  O  O119  1  0.792245  0.582848  0.035677  1
  O  O120  1  0.792955  0.207996  0.035570  1
  O  O121  1  0.683049  0.697208  0.250458  1
  O  O122  1  0.682804  0.985227  0.250515  1
  O  O123  1  0.984212  0.635548  0.082921  1
  O  O124  1  0.652941  0.016155  0.083137  1
  O  O125  1  0.652750  0.635587  0.083102  1
  O  O126  1  0.984239  0.347813  0.083062  1
  O  O127  1  0.784598  0.892123  0.295082  1
  O  O128  1  0.883205  0.440985  0.038101  1
  O  O129  1  0.559505  0.440882  0.038451  1
  O  O130  1  0.560209  0.117723  0.038271  1
  O  O131  1  0.611399  0.944131  0.166792  1
  O  O132  1  0.611297  0.666379  0.166763  1
  O  O133  1  0.582567  0.790729  0.106584  1
  O  O134  1  0.546678  0.773031  0.220870  1
  Si  Si135  1  0.754654  0.755244  0.294074  1
  Si  Si136  1  0.754601  0.999020  0.294095  1
  Si  Si137  1  0.913012  0.577823  0.039225  1
  Si  Si138  1  0.666994  0.087555  0.039429  1
  Si  Si139  1  0.666497  0.577690  0.039480  1
  Si  Si140  1  0.913242  0.334120  0.039293  1
  Si  Si141  1  0.577637  0.910322  0.216533  1
  Si  Si142  1  0.577762  0.666790  0.216506  1
  Si  Si143  1  0.577643  0.665918  0.116992  1
  O  O144  1  0.644844  0.643415  0.000058  1
  Si  Si145  1  0.579885  0.911570  0.372983  1
  Si  Si146  1  0.579632  0.667655  0.372875  1
  Si  Si147  1  0.758228  0.755422  0.549863  1
  Si  Si148  1  0.758643  0.000317  0.549951  1
  O  O149  1  0.667403  0.977246  0.333587  1
  O  O150  1  0.543964  0.082951  0.631021  1
  O  O151  1  0.919467  0.458377  0.631213  1
  O  O152  1  0.544173  0.457937  0.631159  1
  O  O153  1  0.971685  0.318733  0.583886  1
  O  O154  1  0.683447  0.650024  0.583792  1
  O  O155  1  0.971567  0.650140  0.583644  1
  O  O156  1  0.683881  0.030787  0.583905  1
  O  O157  1  0.651498  0.969266  0.416638  1
  O  O158  1  0.651155  0.681003  0.416500  1
  O  O159  1  0.776946  0.225508  0.628585  1
  O  O160  1  0.777019  0.548703  0.628425  1
  O  O161  1  0.549852  0.774685  0.371924  1
  O  O162  1  0.724285  0.999934  0.500259  1
  Si  Si163  1  0.757129  0.999584  0.450445  1
  O  O164  1  0.723845  0.722049  0.500137  1
  Si  Si165  1  0.756789  0.755822  0.450355  1
  O  O166  1  0.753659  0.875466  0.560369  1
  O  O167  1  0.876484  0.750617  0.439854  1
  O  O168  1  0.876917  0.124453  0.439990  1
  O  O169  1  0.895966  0.106610  0.554216  1
  O  O170  1  0.895496  0.786351  0.554098  1
  O  O171  1  0.787988  0.893198  0.446004  1
  Si  Si172  1  0.913876  0.332353  0.627537  1
  Si  Si173  1  0.670011  0.578536  0.627424  1
  Si  Si174  1  0.913938  0.578806  0.627345  1
  Si  Si175  1  0.670032  0.088607  0.627509  1
  O  O176  1  0.667166  0.689643  0.333476  1
  O  O177  1  0.979688  0.666667  0.666658  1
  Si  Si178  1  0.912935  0.577478  0.783607  1
  Si  Si179  1  0.669314  0.577387  0.783577  1
  O  O180  1  0.585131  0.791536  0.964382  1
  O  O181  1  0.752298  0.874734  0.702242  1
  O  O182  1  0.637535  0.651912  0.917001  1
  O  O183  1  0.637731  0.983813  0.917191  1
  O  O184  1  0.700181  0.014270  0.749857  1
  O  O185  1  0.987863  0.682802  0.749676  1
  O  O186  1  0.699953  0.682884  0.749688  1
  O  O187  1  0.988179  0.302265  0.749838  1
  O  O188  1  0.894701  0.107550  0.705064  1
  O  O189  1  0.894747  0.784344  0.704970  1
  O  O190  1  0.946566  0.611176  0.833359  1
  O  O191  1  0.668992  0.055535  0.833496  1
  O  O192  1  0.668581  0.610771  0.833316  1
  O  O193  1  0.946683  0.333347  0.833491  1
  O  O194  1  0.792871  0.582119  0.893513  1
  O  O195  1  0.792956  0.209126  0.893643  1
  O  O196  1  0.544896  0.084390  0.773180  1
  O  O197  1  0.918032  0.457644  0.773232  1
  O  O198  1  0.544539  0.457531  0.773087  1
  O  O199  1  0.881913  0.440168  0.887450  1
  O  O200  1  0.561646  0.439652  0.887423  1
  O  O201  1  0.561914  0.119999  0.887439  1
  O  O202  1  0.775939  0.226574  0.779337  1
  O  O203  1  0.775609  0.546364  0.779258  1
  Si  Si204  1  0.579519  0.665526  0.960617  1
  Si  Si205  1  0.579692  0.912057  0.960763  1
  Si  Si206  1  0.757796  0.000676  0.706134  1
  O  O207  1  0.979590  0.310329  0.666879  1
  Si  Si208  1  0.757825  0.754281  0.706027  1
  Si  Si209  1  0.669627  0.089280  0.783716  1
  Si  Si210  1  0.912903  0.577467  0.883105  1
  Si  Si211  1  0.668295  0.089084  0.883224  1
  Si  Si212  1  0.667957  0.576958  0.883080  1
  Si  Si213  1  0.912898  0.333869  0.883197  1
  Si  Si214  1  0.913202  0.332886  0.783696  1
  O  O215  1  0.691997  0.666317  0.666748  1
  O  O216  1  0.691861  0.022869  0.666895  1
