# generated using pymatgen
data_SiO2
_symmetry_space_group_name_H-M   'P 1'
_cell_length_a   30.03817838
_cell_length_b   8.41979979
_cell_length_c   24.77178115
_cell_angle_alpha   90.00000000
_cell_angle_beta   105.04800000
_cell_angle_gamma   90.00000000
_symmetry_Int_Tables_number   1
_chemical_formula_structural   SiO2
_chemical_formula_sum   'Si112 O224'
_cell_volume   6050.32518155
_cell_formula_units_Z   112
loop_
 _symmetry_equiv_pos_site_id
 _symmetry_equiv_pos_as_xyz
  1  'x, y, z'
loop_
 _atom_site_type_symbol
 _atom_site_label
 _atom_site_symmetry_multiplicity
 _atom_site_fract_x
 _atom_site_fract_y
 _atom_site_fract_z
 _atom_site_occupancy
  O  O1  1  0.138418  0.999934  0.188588  1
  O  O2  1  0.002787  0.257765  0.179478  1
  O  O3  1  0.002787  0.742103  0.179479  1
  O  O4  1  0.052951  0.499933  0.221413  1
  O  O5  1  0.209257  0.999933  0.003298  1
  O  O6  1  0.754190  0.213726  0.161122  1
  O  O7  1  0.245861  0.213725  0.838936  1
  O  O8  1  0.245861  0.786142  0.838935  1
  O  O9  1  0.754190  0.786142  0.161122  1
  O  O10  1  0.171535  0.216460  0.754207  1
  O  O11  1  0.171534  0.783408  0.754207  1
  O  O12  1  0.166696  0.276876  0.855658  1
  O  O13  1  0.166697  0.722992  0.855659  1
  O  O14  1  0.185369  0.999934  0.826641  1
  O  O15  1  0.057211  0.237797  0.768151  1
  O  O16  1  0.057210  0.762069  0.768151  1
  O  O17  1  0.044128  0.999933  0.825060  1
  O  O18  1  0.162830  0.238500  0.955424  1
  O  O19  1  0.162831  0.761367  0.955424  1
  O  O20  1  0.135956  0.499933  0.904794  1
  O  O21  1  0.197244  0.499934  0.112479  1
  O  O22  1  0.087628  0.249162  0.872380  1
  O  O23  1  0.087628  0.750705  0.872380  1
  O  O24  1  0.751414  0.262122  0.001488  1
  O  O25  1  0.248637  0.262124  0.998571  1
  O  O26  1  0.248637  0.737744  0.998569  1
  O  O27  1  0.751414  0.737744  0.001488  1
  O  O28  1  0.166360  0.256916  0.153080  1
  O  O29  1  0.166360  0.742954  0.153079  1
  O  O30  1  0.093729  0.256674  0.192025  1
  O  O31  1  0.093729  0.743194  0.192025  1
  O  O32  1  0.196217  0.233720  0.063445  1
  O  O33  1  0.196218  0.766145  0.063445  1
  O  O34  1  0.746769  0.235563  0.338527  1
  O  O35  1  0.253286  0.235564  0.661537  1
  O  O36  1  0.253284  0.764302  0.661532  1
  O  O37  1  0.746769  0.764303  0.338527  1
  O  O38  1  0.173488  0.214537  0.257329  1
  O  O39  1  0.173487  0.785327  0.257329  1
  O  O40  1  0.168137  0.268582  0.357223  1
  O  O41  1  0.168138  0.731287  0.357226  1
  O  O42  1  0.195225  0.999932  0.331141  1
  O  O43  1  0.058328  0.235443  0.272881  1
  O  O44  1  0.058329  0.764423  0.272881  1
  O  O45  1  0.046340  0.999932  0.331529  1
  O  O46  1  0.165448  0.240688  0.457460  1
  O  O47  1  0.165448  0.759172  0.457466  1
  O  O48  1  0.140296  0.499936  0.405151  1
  O  O49  1  0.199899  0.999936  0.516162  1
  O  O50  1  0.213435  0.499934  0.632879  1
  O  O51  1  0.137962  0.999933  0.684716  1
  O  O52  1  0.050999  0.499933  0.715414  1
  O  O53  1  0.167291  0.258075  0.651054  1
  O  O54  1  0.167291  0.741789  0.651055  1
  O  O55  1  0.092378  0.256115  0.686994  1
  O  O56  1  0.092378  0.743753  0.686995  1
  O  O57  1  0.747863  0.216441  0.500661  1
  O  O58  1  0.252187  0.216444  0.499399  1
  O  O59  1  0.252188  0.783424  0.499397  1
  O  O60  1  0.747863  0.783425  0.500662  1
  O  O61  1  0.200515  0.267290  0.564749  1
  O  O62  1  0.200518  0.732576  0.564751  1
  O  O63  1  0.089680  0.252307  0.376199  1
  O  O64  1  0.089680  0.747562  0.376200  1
  O  O65  1  0.667566  0.239949  0.155092  1
  O  O66  1  0.332485  0.239947  0.844966  1
  O  O67  1  0.332484  0.759918  0.844964  1
  O  O68  1  0.667566  0.759917  0.155093  1
  O  O69  1  0.593573  0.263675  0.191043  1
  O  O70  1  0.406480  0.263674  0.809017  1
  O  O71  1  0.406478  0.736194  0.809014  1
  O  O72  1  0.593573  0.736192  0.191044  1
  O  O73  1  0.647306  0.499934  0.195647  1
  O  O74  1  0.352747  0.499935  0.804413  1
  O  O75  1  0.551952  0.999933  0.195661  1
  O  O76  1  0.448100  0.999934  0.804397  1
  O  O77  1  0.698356  0.266260  0.066189  1
  O  O78  1  0.301694  0.266259  0.933869  1
  O  O79  1  0.301695  0.733604  0.933868  1
  O  O80  1  0.698356  0.733606  0.066189  1
  O  O81  1  0.700420  0.499933  0.000879  1
  O  O82  1  0.299631  0.499933  0.999179  1
  O  O83  1  0.324816  0.230036  0.241009  1
  O  O84  1  0.675236  0.230035  0.759049  1
  O  O85  1  0.675235  0.769830  0.759049  1
  O  O86  1  0.324816  0.769832  0.241009  1
  O  O87  1  0.311279  0.499934  0.193286  1
  O  O88  1  0.688772  0.499933  0.806772  1
  O  O89  1  0.410265  0.235520  0.125398  1
  O  O90  1  0.589786  0.235520  0.874660  1
  O  O91  1  0.589787  0.764346  0.874660  1
  O  O92  1  0.410265  0.764345  0.125397  1
  O  O93  1  0.451248  0.499934  0.159014  1
  O  O94  1  0.548804  0.499934  0.841044  1
  O  O95  1  0.354051  0.999933  0.107326  1
  O  O96  1  0.646001  0.999933  0.892733  1
  O  O97  1  0.699139  0.999933  0.114402  1
  O  O98  1  0.300911  0.999933  0.885656  1
  O  O99  1  0.251939  0.284612  0.158451  1
  O  O100  1  0.748112  0.284613  0.841607  1
  O  O101  1  0.748112  0.715254  0.841606  1
  O  O102  1  0.251939  0.715254  0.158451  1
  O  O103  1  0.331122  0.263268  0.140989  1
  O  O104  1  0.668928  0.263269  0.859068  1
  O  O105  1  0.668930  0.736599  0.859069  1
  O  O106  1  0.331122  0.736598  0.140989  1
  O  O107  1  0.443606  0.290374  0.228251  1
  O  O108  1  0.556445  0.290374  0.771807  1
  O  O109  1  0.556445  0.709494  0.771807  1
  O  O110  1  0.443606  0.709493  0.228251  1
  O  O111  1  0.334883  0.239438  0.041413  1
  O  O112  1  0.665168  0.239439  0.958644  1
  O  O113  1  0.665168  0.760428  0.958644  1
  O  O114  1  0.334883  0.760429  0.041413  1
  O  O115  1  0.501798  0.249564  0.173313  1
  O  O116  1  0.498254  0.249565  0.826745  1
  O  O117  1  0.498253  0.750302  0.826745  1
  O  O118  1  0.501798  0.750302  0.173313  1
  O  O119  1  0.247316  0.242370  0.339402  1
  O  O120  1  0.752736  0.242370  0.660655  1
  O  O121  1  0.752736  0.757496  0.660655  1
  O  O122  1  0.247316  0.757495  0.339402  1
  O  O123  1  0.672977  0.262445  0.258227  1
  O  O124  1  0.327080  0.262441  0.741831  1
  O  O125  1  0.327074  0.737424  0.741830  1
  O  O126  1  0.672978  0.737424  0.258227  1
  O  O127  1  0.668456  0.234051  0.358671  1
  O  O128  1  0.331592  0.234050  0.641384  1
  O  O129  1  0.331595  0.765817  0.641386  1
  O  O130  1  0.668456  0.765816  0.358671  1
  O  O131  1  0.692804  0.999933  0.308868  1
  O  O132  1  0.307247  0.999935  0.691191  1
  O  O133  1  0.555217  0.209117  0.268896  1
  O  O134  1  0.444834  0.209119  0.731161  1
  O  O135  1  0.444834  0.790750  0.731162  1
  O  O136  1  0.555217  0.790749  0.268896  1
  O  O137  1  0.547832  0.999933  0.338452  1
  O  O138  1  0.452219  0.999933  0.661606  1
  O  O139  1  0.662102  0.260171  0.457196  1
  O  O140  1  0.337948  0.260172  0.542862  1
  O  O141  1  0.337948  0.739698  0.542863  1
  O  O142  1  0.662103  0.739696  0.457196  1
  O  O143  1  0.645194  0.499933  0.390841  1
  O  O144  1  0.354856  0.499931  0.609217  1
  O  O145  1  0.691735  0.999933  0.507280  1
  O  O146  1  0.308316  0.999935  0.492778  1
  O  O147  1  0.288714  0.499933  0.373213  1
  O  O148  1  0.711337  0.499933  0.626845  1
  O  O149  1  0.352450  0.999933  0.306990  1
  O  O150  1  0.647601  0.999934  0.693068  1
  O  O151  1  0.497068  0.250142  0.323801  1
  O  O152  1  0.502983  0.250142  0.676257  1
  O  O153  1  0.502983  0.749724  0.676257  1
  O  O154  1  0.497068  0.749725  0.323800  1
  O  O155  1  0.446904  0.499934  0.301296  1
  O  O156  1  0.553146  0.499933  0.698762  1
  O  O157  1  0.332284  0.265923  0.344298  1
  O  O158  1  0.667767  0.265922  0.655760  1
  O  O159  1  0.667767  0.733943  0.655761  1
  O  O160  1  0.332284  0.733942  0.344297  1
  O  O161  1  0.405472  0.236317  0.306571  1
  O  O162  1  0.594580  0.236318  0.693487  1
  O  O163  1  0.594579  0.763548  0.693487  1
  O  O164  1  0.405472  0.763550  0.306571  1
  O  O165  1  0.304565  0.252615  0.434578  1
  O  O166  1  0.695486  0.252614  0.565480  1
  O  O167  1  0.695486  0.747253  0.565481  1
  O  O168  1  0.304565  0.747255  0.434578  1
  O  O169  1  0.588458  0.265719  0.371550  1
  O  O170  1  0.411592  0.265717  0.628508  1
  O  O171  1  0.411593  0.734146  0.628507  1
  O  O172  1  0.588458  0.734148  0.371551  1
  Si  Si173  1  0.137612  0.316103  0.898078  1
  Si  Si174  1  0.137612  0.683763  0.898078  1
  Si  Si175  1  0.203516  0.183628  0.005532  1
  Si  Si176  1  0.203516  0.816239  0.005531  1
  Si  Si177  1  0.140333  0.315834  0.399935  1
  Si  Si178  1  0.140334  0.684036  0.399938  1
  Si  Si179  1  0.207910  0.316255  0.627263  1
  Si  Si180  1  0.207911  0.683608  0.627263  1
  Si  Si181  1  0.644989  0.316227  0.198985  1
  Si  Si182  1  0.355065  0.316230  0.801076  1
  Si  Si183  1  0.355063  0.683638  0.801074  1
  Si  Si184  1  0.644989  0.683638  0.198985  1
  Si  Si185  1  0.703303  0.316092  0.007336  1
  Si  Si186  1  0.296747  0.316093  0.992722  1
  Si  Si187  1  0.296748  0.683773  0.992721  1
  Si  Si188  1  0.703303  0.683773  0.007336  1
  Si  Si189  1  0.358365  0.183409  0.102621  1
  Si  Si190  1  0.641686  0.183409  0.897437  1
  Si  Si191  1  0.641686  0.816457  0.897437  1
  Si  Si192  1  0.358365  0.816457  0.102621  1
  Si  Si193  1  0.695452  0.184035  0.315705  1
  Si  Si194  1  0.304597  0.184042  0.684355  1
  Si  Si195  1  0.304597  0.815829  0.684352  1
  Si  Si196  1  0.695452  0.815831  0.315704  1
  Si  Si197  1  0.640346  0.316349  0.395596  1
  Si  Si198  1  0.359704  0.316348  0.604462  1
  Si  Si199  1  0.359704  0.683516  0.604462  1
  Si  Si200  1  0.640346  0.683516  0.395596  1
  Si  Si201  1  0.354340  0.183567  0.300695  1
  Si  Si202  1  0.645711  0.183567  0.699363  1
  Si  Si203  1  0.645711  0.816300  0.699362  1
  Si  Si204  1  0.354340  0.816300  0.300695  1
  Si  Si205  1  0.293932  0.316012  0.373372  1
  Si  Si206  1  0.706120  0.316012  0.626686  1
  Si  Si207  1  0.706120  0.683855  0.626686  1
  Si  Si208  1  0.293932  0.683854  0.373372  1
  Si  Si209  1  0.052084  0.315127  0.214297  1
  Si  Si210  1  0.052085  0.684740  0.214297  1
  Si  Si211  1  0.046540  0.185210  0.824090  1
  Si  Si212  1  0.046539  0.814657  0.824091  1
  Si  Si213  1  0.201799  0.316511  0.121379  1
  Si  Si214  1  0.201799  0.683356  0.121378  1
  Si  Si215  1  0.142754  0.183604  0.196508  1
  Si  Si216  1  0.142754  0.816263  0.196508  1
  Si  Si217  1  0.196294  0.183333  0.320986  1
  Si  Si218  1  0.196294  0.816531  0.320986  1
  Si  Si219  1  0.050620  0.315126  0.709082  1
  Si  Si220  1  0.050620  0.684740  0.709083  1
  Si  Si221  1  0.141807  0.184107  0.692821  1
  Si  Si222  1  0.141806  0.815760  0.692821  1
  Si  Si223  1  0.203660  0.183437  0.509571  1
  Si  Si224  1  0.203662  0.816435  0.509573  1
  Si  Si225  1  0.048045  0.185198  0.329232  1
  Si  Si226  1  0.048046  0.814666  0.329232  1
  Si  Si227  1  0.703806  0.183263  0.123960  1
  Si  Si228  1  0.296245  0.183262  0.876098  1
  Si  Si229  1  0.296245  0.816602  0.876098  1
  Si  Si230  1  0.703806  0.816603  0.123960  1
  Si  Si231  1  0.304655  0.316596  0.184171  1
  Si  Si232  1  0.695396  0.316596  0.815887  1
  Si  Si233  1  0.695396  0.683270  0.815887  1
  Si  Si234  1  0.304655  0.683270  0.184171  1
  Si  Si235  1  0.301696  0.183923  0.492145  1
  Si  Si236  1  0.698353  0.183921  0.507913  1
  Si  Si237  1  0.698353  0.815945  0.507913  1
  Si  Si238  1  0.301698  0.815946  0.492145  1
  Si  Si239  1  0.192381  0.182570  0.818281  1
  Si  Si240  1  0.192381  0.817297  0.818281  1
  Si  Si241  1  0.451918  0.316399  0.168833  1
  Si  Si242  1  0.548133  0.316400  0.831225  1
  Si  Si243  1  0.548133  0.683469  0.831225  1
  Si  Si244  1  0.451918  0.683468  0.168833  1
  Si  Si245  1  0.550729  0.183220  0.204993  1
  Si  Si246  1  0.449323  0.183220  0.795065  1
  Si  Si247  1  0.449322  0.816646  0.795065  1
  Si  Si248  1  0.550729  0.816646  0.204993  1
  Si  Si249  1  0.448115  0.316526  0.292147  1
  Si  Si250  1  0.551935  0.316525  0.707911  1
  Si  Si251  1  0.551936  0.683340  0.707912  1
  Si  Si252  1  0.448115  0.683342  0.292146  1
  Si  Si253  1  0.546987  0.183430  0.328335  1
  Si  Si254  1  0.453064  0.183430  0.671722  1
  Si  Si255  1  0.453064  0.816436  0.671722  1
  Si  Si256  1  0.546987  0.816436  0.328335  1
  O  O257  1  0.001367  0.256929  0.674467  1
  O  O258  1  0.001366  0.742938  0.674468  1
  O  O259  1  0.786617  0.499933  0.367178  1
  O  O260  1  0.790794  0.999934  0.996760  1
  Si  Si261  1  0.792139  0.316250  0.372796  1
  Si  Si262  1  0.792139  0.683617  0.372796  1
  O  O263  1  0.802807  0.499934  0.887579  1
  O  O264  1  0.800153  0.999933  0.483897  1
  O  O265  1  0.799533  0.267292  0.435304  1
  O  O266  1  0.799533  0.732574  0.435304  1
  Si  Si267  1  0.796534  0.183628  0.994526  1
  Si  Si268  1  0.796534  0.816239  0.994526  1
  Si  Si269  1  0.798252  0.316511  0.878679  1
  Si  Si270  1  0.798252  0.683356  0.878679  1
  Si  Si271  1  0.803757  0.183335  0.679071  1
  Si  Si272  1  0.803757  0.816532  0.679071  1
  Si  Si273  1  0.796389  0.183430  0.490488  1
  Si  Si274  1  0.796389  0.816437  0.490489  1
  O  O275  1  0.804826  0.999933  0.668916  1
  O  O276  1  0.998684  0.256929  0.325590  1
  O  O277  1  0.998685  0.742937  0.325590  1
  O  O278  1  0.828516  0.216460  0.245851  1
  O  O279  1  0.828516  0.783407  0.245850  1
  O  O280  1  0.814682  0.999934  0.173416  1
  O  O281  1  0.837221  0.238501  0.044633  1
  O  O282  1  0.837220  0.761367  0.044633  1
  O  O283  1  0.833691  0.256915  0.846978  1
  O  O284  1  0.833691  0.742953  0.846978  1
  O  O285  1  0.803832  0.233721  0.936612  1
  O  O286  1  0.803833  0.766146  0.936613  1
  O  O287  1  0.826565  0.214537  0.742728  1
  O  O288  1  0.826564  0.785329  0.742728  1
  O  O289  1  0.831913  0.268579  0.642832  1
  O  O290  1  0.831913  0.731288  0.642832  1
  O  O291  1  0.834603  0.240697  0.542592  1
  O  O292  1  0.834604  0.759170  0.542592  1
  Si  Si293  1  0.807670  0.182570  0.181777  1
  Si  Si294  1  0.807670  0.817298  0.181776  1
  O  O295  1  0.833354  0.276876  0.144399  1
  O  O296  1  0.833354  0.722990  0.144398  1
  O  O297  1  0.832760  0.258075  0.349002  1
  O  O298  1  0.832760  0.741792  0.349002  1
  O  O299  1  0.861633  0.999933  0.811470  1
  O  O300  1  0.997264  0.257764  0.820578  1
  O  O301  1  0.997263  0.742102  0.820578  1
  O  O302  1  0.947100  0.499933  0.778644  1
  O  O303  1  0.942840  0.237798  0.231907  1
  O  O304  1  0.942841  0.762069  0.231907  1
  O  O305  1  0.955923  0.999933  0.174997  1
  O  O306  1  0.864095  0.499933  0.095264  1
  O  O307  1  0.912423  0.249161  0.127677  1
  O  O308  1  0.912422  0.750705  0.127678  1
  O  O309  1  0.906322  0.256673  0.808033  1
  O  O310  1  0.906322  0.743192  0.808033  1
  O  O311  1  0.941723  0.235443  0.727176  1
  O  O312  1  0.941722  0.764425  0.727176  1
  O  O313  1  0.953711  0.999933  0.668527  1
  O  O314  1  0.859755  0.499933  0.594906  1
  O  O315  1  0.862090  0.999933  0.315341  1
  O  O316  1  0.949052  0.499934  0.284644  1
  O  O317  1  0.907673  0.256115  0.313063  1
  O  O318  1  0.907673  0.743752  0.313063  1
  O  O319  1  0.910371  0.252306  0.623857  1
  O  O320  1  0.910371  0.747559  0.623857  1
  Si  Si321  1  0.862439  0.316103  0.101979  1
  Si  Si322  1  0.862439  0.683763  0.101980  1
  Si  Si323  1  0.859717  0.315833  0.600120  1
  Si  Si324  1  0.859717  0.684034  0.600120  1
  Si  Si325  1  0.947966  0.315127  0.785759  1
  Si  Si326  1  0.947966  0.684740  0.785760  1
  Si  Si327  1  0.953511  0.185209  0.175967  1
  Si  Si328  1  0.953511  0.814657  0.175966  1
  Si  Si329  1  0.857298  0.183603  0.803549  1
  Si  Si330  1  0.857297  0.816263  0.803549  1
  Si  Si331  1  0.949431  0.315127  0.290975  1
  Si  Si332  1  0.949431  0.684740  0.290975  1
  Si  Si333  1  0.858245  0.184106  0.307236  1
  Si  Si334  1  0.858245  0.815760  0.307236  1
  Si  Si335  1  0.952005  0.185200  0.670825  1
  Si  Si336  1  0.952005  0.814668  0.670825  1
