# generated using pymatgen
data_SiO2
_symmetry_space_group_name_H-M   'P 1'
_cell_length_a   11.49275460
_cell_length_b   22.05987091
_cell_length_c   7.34843271
_cell_angle_alpha   90.00000000
_cell_angle_beta   93.15400000
_cell_angle_gamma   90.00000000
_symmetry_Int_Tables_number   1
_chemical_formula_structural   SiO2
_chemical_formula_sum   'Si32 O64'
_cell_volume   1860.21644485
_cell_formula_units_Z   32
loop_
 _symmetry_equiv_pos_site_id
 _symmetry_equiv_pos_as_xyz
  1  'x, y, z'
loop_
 _atom_site_type_symbol
 _atom_site_label
 _atom_site_symmetry_multiplicity
 _atom_site_fract_x
 _atom_site_fract_y
 _atom_site_fract_z
 _atom_site_occupancy
  O  O1  1  0.222436  0.916244  0.025521  1
  O  O2  1  0.777723  0.416240  0.974635  1
  O  O3  1  0.777757  0.083586  0.974646  1
  O  O4  1  0.222414  0.583595  0.025515  1
  O  O5  1  0.328851  0.958398  0.760451  1
  O  O6  1  0.671319  0.458399  0.239727  1
  O  O7  1  0.671346  0.041435  0.239727  1
  O  O8  1  0.328817  0.541434  0.760413  1
  O  O9  1  0.344070  0.008051  0.095523  1
  O  O10  1  0.656094  0.508048  0.904627  1
  O  O11  1  0.656120  0.991784  0.904636  1
  O  O12  1  0.344043  0.491784  0.095513  1
  O  O13  1  0.156691  0.015143  0.881616  1
  O  O14  1  0.843473  0.515145  0.118546  1
  O  O15  1  0.843499  0.984696  0.118541  1
  O  O16  1  0.156662  0.484690  0.881595  1
  O  O17  1  0.026836  0.589781  0.158266  1
  O  O18  1  0.973324  0.089780  0.841885  1
  O  O19  1  0.973293  0.410055  0.841864  1
  O  O20  1  0.026875  0.910056  0.158297  1
  O  O21  1  0.190898  0.663005  0.273959  1
  O  O22  1  0.809263  0.163003  0.726195  1
  O  O23  1  0.809226  0.336829  0.726198  1
  O  O24  1  0.190944  0.836831  0.273958  1
  O  O25  1  0.090759  0.669528  0.937504  1
  O  O26  1  0.909402  0.169529  0.062649  1
  O  O27  1  0.909386  0.330304  0.062632  1
  O  O28  1  0.090781  0.830303  0.937526  1
  O  O29  1  0.269842  0.749918  0.480698  1
  O  O30  1  0.730325  0.249916  0.519457  1
  O  O31  1  0.338966  0.634907  0.542218  1
  O  O32  1  0.661199  0.134903  0.457943  1
  O  O33  1  0.661179  0.364929  0.457941  1
  O  O34  1  0.338979  0.864935  0.542200  1
  O  O35  1  0.138413  0.669396  0.601976  1
  O  O36  1  0.861750  0.169395  0.398180  1
  O  O37  1  0.861726  0.330437  0.398150  1
  O  O38  1  0.138437  0.830441  0.602007  1
  O  O39  1  0.365303  0.528367  0.427089  1
  O  O40  1  0.634856  0.028371  0.573074  1
  O  O41  1  0.634849  0.471460  0.573057  1
  O  O42  1  0.365320  0.971454  0.427069  1
  O  O43  1  0.524818  0.566408  0.650412  1
  O  O44  1  0.475347  0.066406  0.349743  1
  O  O45  1  0.475318  0.433421  0.349727  1
  O  O46  1  0.524844  0.933425  0.650420  1
  O  O47  1  0.941111  0.632962  0.689049  1
  O  O48  1  0.059048  0.132960  0.311104  1
  O  O49  1  0.059025  0.366879  0.311087  1
  O  O50  1  0.941142  0.866879  0.689071  1
  O  O51  1  0.004759  0.749919  0.718689  1
  O  O52  1  0.995406  0.249919  0.281467  1
  O  O53  1  0.963774  0.982038  0.721619  1
  O  O54  1  0.036389  0.482038  0.278531  1
  O  O55  1  0.036416  0.017800  0.278541  1
  O  O56  1  0.963749  0.517801  0.721614  1
  O  O57  1  0.091301  0.060642  0.579644  1
  O  O58  1  0.908865  0.560642  0.420509  1
  O  O59  1  0.908897  0.939195  0.420518  1
  O  O60  1  0.091263  0.439195  0.579634  1
  O  O61  1  0.244009  0.062831  0.343487  1
  O  O62  1  0.756157  0.562833  0.656665  1
  O  O63  1  0.756183  0.937003  0.656674  1
  O  O64  1  0.243980  0.437003  0.343481  1
  Si  Si65  1  0.267496  0.975865  0.937379  1
  Si  Si66  1  0.732666  0.475864  0.062781  1
  Si  Si67  1  0.732694  0.023969  0.062782  1
  Si  Si68  1  0.267470  0.523970  0.937363  1
  Si  Si69  1  0.133371  0.629023  0.104143  1
  Si  Si70  1  0.866792  0.129022  0.896012  1
  Si  Si71  1  0.866764  0.370812  0.896005  1
  Si  Si72  1  0.133402  0.870812  0.104152  1
  Si  Si73  1  0.239516  0.680048  0.471596  1
  Si  Si74  1  0.760647  0.180047  0.528558  1
  Si  Si75  1  0.760632  0.319787  0.528545  1
  Si  Si76  1  0.239533  0.819789  0.471611  1
  Si  Si77  1  0.390123  0.570458  0.596556  1
  Si  Si78  1  0.610042  0.070456  0.403588  1
  Si  Si79  1  0.610015  0.429373  0.403583  1
  Si  Si80  1  0.390147  0.929376  0.596573  1
  Si  Si81  1  0.039505  0.680753  0.736524  1
  Si  Si82  1  0.960659  0.180753  0.263628  1
  Si  Si83  1  0.960644  0.319082  0.263610  1
  Si  Si84  1  0.039521  0.819082  0.736550  1
  Si  Si85  1  0.047020  0.037269  0.763227  1
  Si  Si86  1  0.953144  0.537270  0.236924  1
  Si  Si87  1  0.953175  0.962568  0.236933  1
  Si  Si88  1  0.046988  0.462567  0.763221  1
  Si  Si89  1  0.110579  0.069862  0.373543  1
  Si  Si90  1  0.889586  0.569862  0.626608  1
  Si  Si91  1  0.889614  0.929976  0.626616  1
  Si  Si92  1  0.110550  0.429977  0.373539  1
  Si  Si93  1  0.360044  0.029222  0.302157  1
  Si  Si94  1  0.640122  0.529222  0.697993  1
  Si  Si95  1  0.640147  0.970608  0.698009  1
  Si  Si96  1  0.360017  0.470607  0.302144  1
