# generated using pymatgen
data_SiO2
_symmetry_space_group_name_H-M   'P 1'
_cell_length_a   17.25043091
_cell_length_b   17.25135508
_cell_length_c   27.73892633
_cell_angle_alpha   90.00000000
_cell_angle_beta   90.00000000
_cell_angle_gamma   120.00000000
_symmetry_Int_Tables_number   1
_chemical_formula_structural   SiO2
_chemical_formula_sum   'Si96 O192'
_cell_volume   7148.96944819
_cell_formula_units_Z   96
loop_
 _symmetry_equiv_pos_site_id
 _symmetry_equiv_pos_as_xyz
  1  'x, y, z'
loop_
 _atom_site_type_symbol
 _atom_site_label
 _atom_site_symmetry_multiplicity
 _atom_site_fract_x
 _atom_site_fract_y
 _atom_site_fract_z
 _atom_site_occupancy
  O  O1  1  0.289609  0.292295  0.086546  1
  Si  Si2  1  0.155279  0.487985  0.011328  1
  Si  Si3  1  0.332735  0.487971  0.011324  1
  O  O4  1  0.002730  0.292302  0.086551  1
  O  O5  1  0.250839  0.250784  0.000021  1
  O  O6  1  0.999977  0.250785  0.000024  1
  O  O7  1  0.288746  0.144311  0.050555  1
  O  O8  1  0.855589  0.144308  0.050552  1
  O  O9  1  0.408248  0.303327  0.025489  1
  O  O10  1  0.696581  0.104785  0.025488  1
  O  O11  1  0.408240  0.104789  0.025489  1
  O  O12  1  0.895112  0.303335  0.025492  1
  O  O13  1  0.100579  0.413729  0.155195  1
  O  O14  1  0.313200  0.413733  0.155193  1
  O  O15  1  0.123733  0.447365  0.063463  1
  O  O16  1  0.323675  0.447363  0.063462  1
  O  O17  1  0.173426  0.346809  0.101641  1
  Si  Si18  1  0.154495  0.487522  0.305149  1
  Si  Si19  1  0.333114  0.487529  0.305146  1
  Si  Si20  1  0.154485  0.487520  0.194892  1
  O  O21  1  0.332582  0.461629  0.250017  1
  O  O22  1  0.129117  0.461625  0.250022  1
  Si  Si23  1  0.307763  0.243314  0.042959  1
  Si  Si24  1  0.756585  0.064320  0.042960  1
  Si  Si25  1  0.307760  0.064322  0.042961  1
  Si  Si26  1  0.935578  0.243324  0.042965  1
  Si  Si27  1  0.097144  0.372650  0.103497  1
  Si  Si28  1  0.275547  0.372643  0.103496  1
  Si  Si29  1  0.333100  0.487532  0.194888  1
  O  O30  1  0.997290  0.289562  0.586547  1
  O  O31  1  0.292369  0.289550  0.586540  1
  O  O32  1  0.289642  0.292293  0.413489  1
  Si  Si33  1  0.667261  0.155207  0.511344  1
  Si  Si34  1  0.488057  0.332683  0.511330  1
  O  O35  1  0.002754  0.292292  0.413497  1
  O  O36  1  0.000012  0.250792  0.500021  1
  Si  Si37  1  0.844721  0.332683  0.511339  1
  O  O38  1  0.250869  0.250784  0.500010  1
  O  O39  1  0.144394  0.288691  0.550551  1
  O  O40  1  0.288779  0.144324  0.449483  1
  O  O41  1  0.855642  0.144328  0.449490  1
  O  O42  1  0.104884  0.408205  0.525489  1
  O  O43  1  0.303428  0.408200  0.525482  1
  O  O44  1  0.408280  0.303329  0.474544  1
  O  O45  1  0.696607  0.104788  0.474553  1
  O  O46  1  0.408280  0.104790  0.474549  1
  O  O47  1  0.895150  0.303335  0.474550  1
  O  O48  1  0.686814  0.100520  0.655188  1
  O  O49  1  0.413793  0.313132  0.655194  1
  O  O50  1  0.899426  0.313145  0.655205  1
  O  O51  1  0.413780  0.100522  0.655188  1
  O  O52  1  0.100605  0.413729  0.344844  1
  O  O53  1  0.313223  0.413736  0.344840  1
  O  O54  1  0.676343  0.123665  0.563483  1
  O  O55  1  0.447438  0.323600  0.563469  1
  O  O56  1  0.876260  0.323605  0.563473  1
  O  O57  1  0.447424  0.123671  0.563481  1
  O  O58  1  0.123769  0.447365  0.436577  1
  O  O59  1  0.323708  0.447366  0.436573  1
  O  O60  1  0.826554  0.173342  0.601653  1
  O  O61  1  0.346876  0.173346  0.601644  1
  O  O62  1  0.173459  0.346808  0.398396  1
  O  O63  1  0.570669  0.429289  0.502794  1
  O  O64  1  0.570661  0.141213  0.502797  1
  O  O65  1  0.858712  0.429281  0.502800  1
  O  O66  1  0.742656  0.485227  0.508744  1
  O  O67  1  0.514727  0.257283  0.508738  1
  O  O68  1  0.742651  0.257274  0.508743  1
  Si  Si69  1  0.064415  0.307725  0.542952  1
  Si  Si70  1  0.243405  0.307718  0.542943  1
  Si  Si71  1  0.307807  0.243327  0.457073  1
  Si  Si72  1  0.756625  0.064333  0.457084  1
  Si  Si73  1  0.307799  0.064329  0.457079  1
  Si  Si74  1  0.935624  0.243328  0.457083  1
  Si  Si75  1  0.724452  0.097062  0.603513  1
  Si  Si76  1  0.372715  0.275469  0.603494  1
  Si  Si77  1  0.902847  0.275476  0.603503  1
  Si  Si78  1  0.372701  0.097064  0.603506  1
  Si  Si79  1  0.097171  0.372645  0.396543  1
  Si  Si80  1  0.275583  0.372647  0.396538  1
  Si  Si81  1  0.332780  0.487985  0.488708  1
  Si  Si82  1  0.155318  0.487984  0.488712  1
  Si  Si83  1  0.488049  0.155211  0.511346  1
  O  O84  1  0.292379  0.002683  0.586544  1
  O  O85  1  0.710407  0.002694  0.586547  1
  O  O86  1  0.997235  0.289555  0.913495  1
  O  O87  1  0.292335  0.289549  0.913495  1
  O  O88  1  0.144362  0.288685  0.949489  1
  O  O89  1  0.104844  0.408199  0.974555  1
  O  O90  1  0.303392  0.408191  0.974548  1
  O  O91  1  0.686781  0.100514  0.844841  1
  O  O92  1  0.413774  0.313134  0.844835  1
  O  O93  1  0.899396  0.313136  0.844848  1
  O  O94  1  0.413763  0.100510  0.844841  1
  O  O95  1  0.676286  0.123663  0.936569  1
  O  O96  1  0.447402  0.323597  0.936565  1
  O  O97  1  0.876224  0.323590  0.936567  1
  O  O98  1  0.447396  0.123670  0.936566  1
  O  O99  1  0.826561  0.173376  0.898387  1
  O  O100  1  0.346836  0.173360  0.898381  1
  O  O101  1  0.742625  0.485226  0.991298  1
  O  O102  1  0.514683  0.257276  0.991293  1
  O  O103  1  0.742619  0.257270  0.991297  1
  O  O104  1  0.848216  0.424037  0.684504  1
  O  O105  1  0.575898  0.424042  0.684500  1
  O  O106  1  0.575896  0.151715  0.684505  1
  O  O107  1  0.848198  0.424029  0.815537  1
  O  O108  1  0.575877  0.424031  0.815533  1
  O  O109  1  0.575875  0.151710  0.815539  1
  O  O110  1  0.870872  0.332502  0.750025  1
  O  O111  1  0.461685  0.129052  0.750016  1
  O  O112  1  0.667420  0.129052  0.750016  1
  O  O113  1  0.461682  0.332499  0.750022  1
  O  O114  1  0.745221  0.254699  0.690240  1
  O  O115  1  0.745226  0.490381  0.690241  1
  O  O116  1  0.509554  0.254703  0.690244  1
  O  O117  1  0.745210  0.254706  0.809798  1
  O  O118  1  0.745213  0.490377  0.809797  1
  O  O119  1  0.509535  0.254707  0.809798  1
  Si  Si120  1  0.064381  0.307727  0.957087  1
  Si  Si121  1  0.243377  0.307721  0.957086  1
  Si  Si122  1  0.724426  0.097084  0.896538  1
  Si  Si123  1  0.372682  0.275484  0.896529  1
  Si  Si124  1  0.902835  0.275489  0.896535  1
  Si  Si125  1  0.372675  0.097074  0.896535  1
  Si  Si126  1  0.845510  0.333026  0.694895  1
  Si  Si127  1  0.487579  0.154409  0.694885  1
  Si  Si128  1  0.666905  0.154405  0.694883  1
  Si  Si129  1  0.487585  0.333026  0.694891  1
  Si  Si130  1  0.845502  0.333024  0.805154  1
  Si  Si131  1  0.487572  0.154425  0.805150  1
  Si  Si132  1  0.666892  0.154420  0.805146  1
  Si  Si133  1  0.487573  0.333026  0.805150  1
  Si  Si134  1  0.488014  0.155213  0.988699  1
  Si  Si135  1  0.844680  0.332676  0.988704  1
  Si  Si136  1  0.488026  0.332679  0.988699  1
  Si  Si137  1  0.667219  0.155202  0.988700  1
  O  O138  1  0.292327  0.002661  0.913494  1
  O  O139  1  0.710368  0.002666  0.913486  1
  O  O140  1  0.570634  0.429281  0.997246  1
  O  O141  1  0.570621  0.141218  0.997251  1
  O  O142  1  0.858673  0.429275  0.997245  1
  O  O143  1  0.002719  0.710291  0.086550  1
  O  O144  1  0.707610  0.710302  0.086535  1
  O  O145  1  0.749144  0.999947  0.000018  1
  O  O146  1  0.855583  0.711150  0.050557  1
  O  O147  1  0.895115  0.591646  0.025490  1
  O  O148  1  0.696573  0.591659  0.025485  1
  O  O149  1  0.313189  0.899339  0.155194  1
  O  O150  1  0.586193  0.686741  0.155189  1
  O  O151  1  0.100581  0.686723  0.155197  1
  O  O152  1  0.586203  0.899335  0.155184  1
  O  O153  1  0.323678  0.876195  0.063461  1
  O  O154  1  0.552557  0.676258  0.063467  1
  O  O155  1  0.123747  0.676258  0.063464  1
  O  O156  1  0.552563  0.876182  0.063470  1
  O  O157  1  0.173418  0.826490  0.101646  1
  O  O158  1  0.653101  0.826494  0.101625  1
  O  O159  1  0.257336  0.514633  0.008726  1
  O  O160  1  0.485268  0.742575  0.008717  1
  O  O161  1  0.257336  0.742585  0.008730  1
  O  O162  1  0.151784  0.575823  0.184504  1
  O  O163  1  0.424108  0.575841  0.184503  1
  O  O164  1  0.424114  0.848156  0.184502  1
  O  O165  1  0.151798  0.575826  0.315537  1
  O  O166  1  0.424116  0.575837  0.315535  1
  O  O167  1  0.424122  0.848160  0.315538  1
  O  O168  1  0.129123  0.667361  0.250023  1
  O  O169  1  0.538321  0.870826  0.250016  1
  O  O170  1  0.332569  0.870819  0.250021  1
  O  O171  1  0.538313  0.667369  0.250013  1
  O  O172  1  0.254772  0.745161  0.190239  1
  O  O173  1  0.254768  0.509477  0.190241  1
  O  O174  1  0.490436  0.745157  0.190245  1
  O  O175  1  0.254785  0.745157  0.309797  1
  O  O176  1  0.254783  0.509480  0.309797  1
  O  O177  1  0.490461  0.745165  0.309801  1
  Si  Si178  1  0.935575  0.692120  0.042963  1
  Si  Si179  1  0.756578  0.692130  0.042956  1
  Si  Si180  1  0.275543  0.902779  0.103497  1
  Si  Si181  1  0.627280  0.724384  0.103493  1
  Si  Si182  1  0.097143  0.724368  0.103498  1
  Si  Si183  1  0.627291  0.902783  0.103496  1
  Si  Si184  1  0.154485  0.666831  0.194893  1
  Si  Si185  1  0.512420  0.845450  0.194888  1
  Si  Si186  1  0.333097  0.845447  0.194891  1
  Si  Si187  1  0.512414  0.666844  0.194890  1
  Si  Si188  1  0.154504  0.666832  0.305150  1
  Si  Si189  1  0.512425  0.845446  0.305148  1
  Si  Si190  1  0.333103  0.845439  0.305147  1
  Si  Si191  1  0.512420  0.666844  0.305146  1
  Si  Si192  1  0.511944  0.844650  0.011327  1
  Si  Si193  1  0.155285  0.667177  0.011330  1
  Si  Si194  1  0.511943  0.667174  0.011326  1
  Si  Si195  1  0.332732  0.844642  0.011327  1
  O  O196  1  0.707606  0.997172  0.086537  1
  O  O197  1  0.289602  0.997188  0.086544  1
  O  O198  1  0.999977  0.749068  0.000024  1
  O  O199  1  0.250832  0.999933  0.000023  1
  O  O200  1  0.749142  0.749069  0.000018  1
  O  O201  1  0.429331  0.570569  0.002782  1
  O  O202  1  0.429332  0.858646  0.002777  1
  O  O203  1  0.141284  0.570584  0.002788  1
  O  O204  1  0.710402  0.707572  0.586546  1
  Si  Si205  1  0.844717  0.511879  0.511340  1
  Si  Si206  1  0.667258  0.511890  0.511337  1
  O  O207  1  0.997272  0.707561  0.586548  1
  O  O208  1  0.002749  0.710293  0.413499  1
  O  O209  1  0.707653  0.710303  0.413492  1
  O  O210  1  0.749168  0.749073  0.500017  1
  O  O211  1  0.250857  0.999926  0.500018  1
  O  O212  1  0.000002  0.749057  0.500021  1
  O  O213  1  0.711273  0.855568  0.550547  1
  O  O214  1  0.144396  0.855553  0.550545  1
  O  O215  1  0.855627  0.711151  0.449485  1
  O  O216  1  0.591754  0.696535  0.525486  1
  O  O217  1  0.303411  0.895073  0.525487  1
  O  O218  1  0.591768  0.895074  0.525489  1
  O  O219  1  0.104881  0.696524  0.525489  1
  O  O220  1  0.895149  0.591653  0.474555  1
  O  O221  1  0.696602  0.591657  0.474551  1
  O  O222  1  0.899420  0.586133  0.655201  1
  O  O223  1  0.686799  0.586137  0.655195  1
  O  O224  1  0.313206  0.899334  0.344841  1
  O  O225  1  0.586216  0.686734  0.344843  1
  O  O226  1  0.100606  0.686725  0.344847  1
  O  O227  1  0.586232  0.899347  0.344846  1
  O  O228  1  0.876269  0.552501  0.563475  1
  O  O229  1  0.676329  0.552508  0.563471  1
  O  O230  1  0.323702  0.876188  0.436574  1
  O  O231  1  0.552591  0.676274  0.436572  1
  O  O232  1  0.123779  0.676265  0.436576  1
  O  O233  1  0.552592  0.876189  0.436576  1
  O  O234  1  0.826575  0.653056  0.601650  1
  O  O235  1  0.173441  0.826488  0.398400  1
  O  O236  1  0.653157  0.826500  0.398393  1
  O  O237  1  0.429377  0.570585  0.497249  1
  O  O238  1  0.429383  0.858642  0.497259  1
  O  O239  1  0.141320  0.570578  0.497253  1
  O  O240  1  0.257371  0.514627  0.491308  1
  O  O241  1  0.485316  0.742588  0.491307  1
  O  O242  1  0.257376  0.742586  0.491308  1
  Si  Si243  1  0.692232  0.756547  0.542954  1
  Si  Si244  1  0.243404  0.935535  0.542958  1
  Si  Si245  1  0.692231  0.935543  0.542963  1
  Si  Si246  1  0.064413  0.756535  0.542955  1
  Si  Si247  1  0.935611  0.692123  0.457082  1
  Si  Si248  1  0.756614  0.692126  0.457078  1
  Si  Si249  1  0.902859  0.627215  0.603506  1
  Si  Si250  1  0.724449  0.627217  0.603502  1
  Si  Si251  1  0.275566  0.902776  0.396541  1
  Si  Si252  1  0.627313  0.724381  0.396538  1
  Si  Si253  1  0.097165  0.724373  0.396542  1
  Si  Si254  1  0.627315  0.902784  0.396542  1
  Si  Si255  1  0.511985  0.844648  0.488710  1
  Si  Si256  1  0.155317  0.667178  0.488711  1
  Si  Si257  1  0.511969  0.667187  0.488709  1
  Si  Si258  1  0.332776  0.844649  0.488709  1
  O  O259  1  0.707665  0.997194  0.413495  1
  O  O260  1  0.289630  0.997190  0.413491  1
  O  O261  1  0.749171  0.999935  0.500022  1
  O  O262  1  0.710369  0.707577  0.913486  1
  Si  Si263  1  0.844683  0.511875  0.988703  1
  Si  Si264  1  0.667224  0.511885  0.988703  1
  O  O265  1  0.997242  0.707565  0.913493  1
  Si  Si266  1  0.845506  0.512342  0.805152  1
  Si  Si267  1  0.666885  0.512341  0.805149  1
  Si  Si268  1  0.845511  0.512342  0.694893  1
  O  O269  1  0.711233  0.855545  0.949486  1
  O  O270  1  0.144356  0.855554  0.949493  1
  O  O271  1  0.591728  0.696536  0.974541  1
  O  O272  1  0.303382  0.895076  0.974549  1
  O  O273  1  0.591728  0.895074  0.974543  1
  O  O274  1  0.104850  0.696525  0.974554  1
  O  O275  1  0.899408  0.586133  0.844847  1
  O  O276  1  0.686779  0.586136  0.844837  1
  O  O277  1  0.876235  0.552500  0.936573  1
  O  O278  1  0.676286  0.552493  0.936567  1
  O  O279  1  0.826555  0.653058  0.898390  1
  Si  Si280  1  0.666910  0.512352  0.694890  1
  Si  Si281  1  0.724423  0.627216  0.896533  1
  Si  Si282  1  0.902832  0.627206  0.896540  1
  O  O283  1  0.667416  0.538230  0.750020  1
  O  O284  1  0.870877  0.538226  0.750023  1
  Si  Si285  1  0.692212  0.756544  0.957082  1
  Si  Si286  1  0.243365  0.935533  0.957088  1
  Si  Si287  1  0.692212  0.935535  0.957083  1
  Si  Si288  1  0.064384  0.756532  0.957086  1
