# generated using pymatgen
data_SiO2
_symmetry_space_group_name_H-M   'P 1'
_cell_length_a   14.03767940
_cell_length_b   14.05363030
_cell_length_c   10.13906825
_cell_angle_alpha   90.00000000
_cell_angle_beta   90.00000000
_cell_angle_gamma   90.00000000
_symmetry_Int_Tables_number   1
_chemical_formula_structural   SiO2
_chemical_formula_sum   'Si32 O64'
_cell_volume   2000.23899873
_cell_formula_units_Z   32
loop_
 _symmetry_equiv_pos_site_id
 _symmetry_equiv_pos_as_xyz
  1  'x, y, z'
loop_
 _atom_site_type_symbol
 _atom_site_label
 _atom_site_symmetry_multiplicity
 _atom_site_fract_x
 _atom_site_fract_y
 _atom_site_fract_z
 _atom_site_occupancy
  O  O1  1  0.327420  0.131047  0.125551  1
  Si  Si2  1  0.390613  0.109214  0.250080  1
  O  O3  1  0.173214  0.173100  0.000092  1
  O  O4  1  0.326930  0.326666  0.500006  1
  Si  Si5  1  0.390566  0.109215  0.749936  1
  Si  Si6  1  0.390154  0.234586  0.500007  1
  Si  Si7  1  0.265194  0.109652  0.000031  1
  Si  Si8  1  0.109985  0.265176  0.000102  1
  O  O9  1  0.131478  0.327301  0.874571  1
  O  O10  1  0.368684  0.172469  0.374462  1
  O  O11  1  0.327352  0.131049  0.874446  1
  O  O12  1  0.368662  0.172467  0.625543  1
  O  O13  1  0.131452  0.327290  0.125653  1
  O  O14  1  0.000071  0.243188  0.000074  1
  O  O15  1  0.257085  0.499883  0.500065  1
  O  O16  1  0.121525  0.499882  0.782908  1
  Si  Si17  1  0.109578  0.390547  0.750173  1
  Si  Si18  1  0.109509  0.609213  0.250033  1
  O  O19  1  0.121477  0.499879  0.217302  1
  O  O20  1  0.172699  0.631046  0.374565  1
  O  O21  1  0.172709  0.368714  0.374565  1
  O  O22  1  0.172782  0.631050  0.625670  1
  O  O23  1  0.172799  0.368712  0.625671  1
  Si  Si24  1  0.234933  0.609652  0.500079  1
  Si  Si25  1  0.234945  0.390111  0.500075  1
  Si  Si26  1  0.109517  0.390544  0.250033  1
  Si  Si27  1  0.109565  0.609216  0.750176  1
  O  O28  1  0.000027  0.621137  0.282659  1
  O  O29  1  0.000089  0.621140  0.717492  1
  O  O30  1  0.000104  0.378611  0.717486  1
  O  O31  1  0.000034  0.378612  0.282654  1
  O  O32  1  0.243042  0.999882  0.000044  1
  O  O33  1  0.326913  0.673101  0.500010  1
  O  O34  1  0.173197  0.826666  0.000107  1
  Si  Si35  1  0.390549  0.890546  0.749937  1
  O  O36  1  0.327328  0.868711  0.874439  1
  O  O37  1  0.368675  0.827292  0.374457  1
  O  O38  1  0.131466  0.672466  0.874571  1
  O  O39  1  0.327418  0.868715  0.125545  1
  O  O40  1  0.131441  0.672469  0.125654  1
  O  O41  1  0.368649  0.827299  0.625538  1
  Si  Si42  1  0.265181  0.890111  0.000035  1
  Si  Si43  1  0.390142  0.765176  0.500006  1
  Si  Si44  1  0.109972  0.734586  0.000106  1
  Si  Si45  1  0.390610  0.890546  0.250077  1
  O  O46  1  0.378602  0.999881  0.717203  1
  O  O47  1  0.378649  0.999880  0.282810  1
  O  O48  1  0.000056  0.756562  0.000079  1
  O  O49  1  0.826929  0.173084  0.000007  1
  O  O50  1  0.673214  0.326649  0.500103  1
  O  O51  1  0.500043  0.121137  0.782611  1
  O  O52  1  0.672732  0.131036  0.874487  1
  O  O53  1  0.868691  0.327285  0.874499  1
  O  O54  1  0.631480  0.172474  0.374494  1
  O  O55  1  0.672775  0.131037  0.125593  1
  O  O56  1  0.631450  0.172435  0.625575  1
  O  O57  1  0.868656  0.327280  0.125581  1
  Si  Si58  1  0.734945  0.109639  0.000020  1
  Si  Si59  1  0.890154  0.265163  0.000042  1
  Si  Si60  1  0.609985  0.234574  0.500049  1
  Si  Si61  1  0.609571  0.109210  0.250113  1
  Si  Si62  1  0.609523  0.109197  0.749973  1
  O  O63  1  0.500095  0.121140  0.217444  1
  O  O64  1  0.500071  0.256562  0.500029  1
  O  O65  1  0.743042  0.499867  0.500088  1
  Si  Si66  1  0.890607  0.609203  0.750121  1
  Si  Si67  1  0.890559  0.390537  0.249970  1
  O  O68  1  0.878652  0.499867  0.782843  1
  O  O69  1  0.878599  0.499871  0.217237  1
  O  O70  1  0.827350  0.368705  0.374483  1
  O  O71  1  0.827344  0.631034  0.374497  1
  O  O72  1  0.827423  0.368699  0.625588  1
  O  O73  1  0.827402  0.631039  0.625603  1
  Si  Si74  1  0.765195  0.390098  0.500070  1
  Si  Si75  1  0.765182  0.609639  0.500077  1
  Si  Si76  1  0.890552  0.609205  0.249981  1
  Si  Si77  1  0.890621  0.390534  0.750113  1
  O  O78  1  0.621476  0.999861  0.717258  1
  O  O79  1  0.757084  0.999867  0.000016  1
  Si  Si80  1  0.609568  0.890542  0.250139  1
  O  O81  1  0.673198  0.673084  0.500093  1
  O  O82  1  0.826913  0.826649  0.000007  1
  Si  Si83  1  0.609506  0.890529  0.749996  1
  Si  Si84  1  0.734932  0.890098  0.000039  1
  O  O85  1  0.631471  0.827286  0.374530  1
  O  O86  1  0.868678  0.672443  0.874515  1
  O  O87  1  0.672704  0.868697  0.874522  1
  O  O88  1  0.868645  0.672465  0.125596  1
  O  O89  1  0.631436  0.827278  0.625611  1
  O  O90  1  0.672777  0.868707  0.125627  1
  Si  Si91  1  0.609972  0.765164  0.500062  1
  Si  Si92  1  0.890142  0.734574  0.000050  1
  O  O93  1  0.500022  0.878608  0.782624  1
  O  O94  1  0.500093  0.878615  0.217457  1
  O  O95  1  0.621526  0.999878  0.282864  1
  O  O96  1  0.500056  0.743188  0.500031  1
