# generated using pymatgen
data_SiO2
_symmetry_space_group_name_H-M   'P 1'
_cell_length_a   20.00408788
_cell_length_b   12.41646596
_cell_length_c   10.08852354
_cell_angle_alpha   90.00000000
_cell_angle_beta   105.25400000
_cell_angle_gamma   90.00000000
_symmetry_Int_Tables_number   1
_chemical_formula_structural   SiO2
_chemical_formula_sum   'Si40 O80'
_cell_volume   2417.50671507
_cell_formula_units_Z   40
loop_
 _symmetry_equiv_pos_site_id
 _symmetry_equiv_pos_as_xyz
  1  'x, y, z'
loop_
 _atom_site_type_symbol
 _atom_site_label
 _atom_site_symmetry_multiplicity
 _atom_site_fract_x
 _atom_site_fract_y
 _atom_site_fract_z
 _atom_site_occupancy
  O  O1  1  0.159083  0.298515  0.130438  1
  O  O2  1  0.274689  0.388859  0.182200  1
  O  O3  1  0.225414  0.110866  0.818032  1
  O  O4  1  0.227346  0.123725  0.167404  1
  O  O5  1  0.272760  0.376006  0.832841  1
  O  O6  1  0.093375  0.093321  0.696114  1
  O  O7  1  0.156899  0.286460  0.770111  1
  O  O8  1  0.138012  0.155449  0.945484  1
  Si  Si9  1  0.046549  0.009955  0.153468  1
  O  O10  1  0.097245  0.107675  0.156670  1
  O  O11  1  0.314342  0.068612  0.040900  1
  O  O12  1  0.185762  0.431118  0.959342  1
  O  O13  1  0.003281  0.026313  0.259878  1
  O  O14  1  0.326052  0.007197  0.299296  1
  O  O15  1  0.174066  0.492541  0.700955  1
  Si  Si16  1  0.306763  0.100108  0.188187  1
  Si  Si17  1  0.193344  0.399624  0.812057  1
  Si  Si18  1  0.195051  0.410436  0.117754  1
  Si  Si19  1  0.305053  0.089291  0.882488  1
  Si  Si20  1  0.151343  0.161493  0.799009  1
  Si  Si21  1  0.153279  0.172523  0.105021  1
  O  O22  1  0.159100  0.701216  0.630454  1
  O  O23  1  0.225422  0.888864  0.318051  1
  O  O24  1  0.274706  0.610868  0.682203  1
  O  O25  1  0.272766  0.623726  0.332831  1
  O  O26  1  0.227365  0.876002  0.667418  1
  O  O27  1  0.093386  0.906405  0.196127  1
  O  O28  1  0.156905  0.713272  0.270126  1
  O  O29  1  0.138022  0.844284  0.445506  1
  O  O30  1  0.097265  0.892052  0.656706  1
  O  O31  1  0.185774  0.568613  0.459348  1
  O  O32  1  0.314356  0.931119  0.540908  1
  O  O33  1  0.003283  0.973382  0.759880  1
  O  O34  1  0.174059  0.507193  0.200954  1
  O  O35  1  0.326058  0.992537  0.799301  1
  Si  Si36  1  0.193351  0.600108  0.312060  1
  Si  Si37  1  0.306781  0.899621  0.688198  1
  Si  Si38  1  0.305061  0.910441  0.382493  1
  Si  Si39  1  0.195066  0.589293  0.617762  1
  Si  Si40  1  0.151350  0.838238  0.299028  1
  Si  Si41  1  0.153296  0.827208  0.605046  1
  Si  Si42  1  0.046552  0.989754  0.653476  1
  O  O43  1  0.659210  0.201024  0.631152  1
  O  O44  1  0.341020  0.201213  0.869803  1
  O  O45  1  0.406726  0.406419  0.304112  1
  O  O46  1  0.592864  0.405440  0.196654  1
  O  O47  1  0.343208  0.213272  0.230126  1
  O  O48  1  0.656810  0.213445  0.270385  1
  O  O49  1  0.362097  0.344283  0.054750  1
  O  O50  1  0.638328  0.343949  0.446130  1
  O  O51  1  0.402859  0.392032  0.843532  1
  O  O52  1  0.597451  0.393199  0.656006  1
  O  O53  1  0.496798  0.473373  0.740226  1
  Si  Si54  1  0.348763  0.338239  0.201224  1
  Si  Si55  1  0.651256  0.338395  0.299467  1
  Si  Si56  1  0.346827  0.327205  0.895212  1
  Si  Si57  1  0.653505  0.327013  0.605655  1
  Si  Si58  1  0.453566  0.489732  0.846702  1
  Si  Si59  1  0.546409  0.491590  0.646300  1
  O  O60  1  0.503489  0.497708  0.993691  1
  O  O61  1  0.341027  0.798519  0.369797  1
  O  O62  1  0.659229  0.798617  0.131169  1
  O  O63  1  0.592874  0.594205  0.696668  1
  O  O64  1  0.406741  0.593305  0.804103  1
  O  O65  1  0.656817  0.786194  0.770401  1
  O  O66  1  0.343227  0.786456  0.730130  1
  O  O67  1  0.638339  0.655691  0.946154  1
  O  O68  1  0.362107  0.655448  0.554740  1
  Si  Si69  1  0.453563  0.509980  0.346701  1
  O  O70  1  0.503484  0.501996  0.493690  1
  O  O71  1  0.597470  0.606445  0.156041  1
  O  O72  1  0.402865  0.607695  0.343523  1
  O  O73  1  0.496801  0.526304  0.240228  1
  Si  Si74  1  0.651264  0.661245  0.799488  1
  Si  Si75  1  0.348778  0.661490  0.701219  1
  Si  Si76  1  0.653523  0.672628  0.105680  1
  Si  Si77  1  0.346834  0.672525  0.395201  1
  Si  Si78  1  0.546412  0.508073  0.146307  1
  O  O79  1  0.840888  0.298616  0.369061  1
  O  O80  1  0.725250  0.389164  0.317872  1
  O  O81  1  0.774848  0.110479  0.682329  1
  O  O82  1  0.772511  0.123876  0.332454  1
  O  O83  1  0.727590  0.375764  0.667764  1
  O  O84  1  0.907232  0.094196  0.803558  1
  O  O85  1  0.843291  0.286194  0.729822  1
  O  O86  1  0.861776  0.155687  0.554079  1
  O  O87  1  0.996655  0.001942  0.006456  1
  O  O88  1  0.902647  0.106455  0.344180  1
  O  O89  1  0.685714  0.068620  0.459474  1
  O  O90  1  0.814383  0.431019  0.540736  1
  O  O91  1  0.673968  0.007276  0.200969  1
  O  O92  1  0.826145  0.492358  0.799247  1
  Si  Si93  1  0.693148  0.100192  0.312105  1
  Si  Si94  1  0.806952  0.399446  0.688106  1
  Si  Si95  1  0.804958  0.410527  0.382227  1
  Si  Si96  1  0.695141  0.089113  0.617983  1
  Si  Si97  1  0.848844  0.161244  0.700739  1
  Si  Si98  1  0.846595  0.172629  0.394554  1
  Si  Si99  1  0.953703  0.008087  0.353866  1
  O  O100  1  0.840895  0.701021  0.869055  1
  O  O101  1  0.774866  0.889165  0.182334  1
  O  O102  1  0.725258  0.610476  0.817891  1
  O  O103  1  0.727609  0.623880  0.167778  1
  O  O104  1  0.772518  0.875765  0.832444  1
  O  O105  1  0.907249  0.905451  0.303547  1
  O  O106  1  0.843310  0.713448  0.229826  1
  O  O107  1  0.861786  0.843951  0.054070  1
  O  O108  1  0.902655  0.893188  0.844173  1
  O  O109  1  0.814398  0.568620  0.040745  1
  O  O110  1  0.685728  0.931019  0.959481  1
  O  O111  1  0.826151  0.507277  0.299253  1
  O  O112  1  0.673962  0.992360  0.700969  1
  Si  Si113  1  0.806970  0.600195  0.188116  1
  Si  Si114  1  0.693156  0.899448  0.812108  1
  Si  Si115  1  0.695157  0.910527  0.117991  1
  Si  Si116  1  0.804966  0.589112  0.882234  1
  Si  Si117  1  0.848860  0.838397  0.200734  1
  Si  Si118  1  0.846602  0.827010  0.894544  1
  Si  Si119  1  0.953699  0.991572  0.853866  1
  O  O120  1  0.996661  0.997724  0.506456  1
