# generated using pymatgen
data_SiO2
_symmetry_space_group_name_H-M   'P 1'
_cell_length_a   25.24803673
_cell_length_b   12.58132914
_cell_length_c   12.87887348
_cell_angle_alpha   90.00000000
_cell_angle_beta   90.00000000
_cell_angle_gamma   90.00000000
_symmetry_Int_Tables_number   1
_chemical_formula_structural   SiO2
_chemical_formula_sum   'Si74 O148'
_cell_volume   4091.02387638
_cell_formula_units_Z   74
loop_
 _symmetry_equiv_pos_site_id
 _symmetry_equiv_pos_as_xyz
  1  'x, y, z'
loop_
 _atom_site_type_symbol
 _atom_site_label
 _atom_site_symmetry_multiplicity
 _atom_site_fract_x
 _atom_site_fract_y
 _atom_site_fract_z
 _atom_site_occupancy
  O  O1  1  0.163910  0.100675  0.406963  1
  O  O2  1  0.163900  0.899076  0.406962  1
  O  O3  1  0.073786  0.173690  0.367549  1
  O  O4  1  0.073786  0.826049  0.367525  1
  O  O5  1  0.155563  0.299395  0.387033  1
  O  O6  1  0.155566  0.700361  0.387013  1
  O  O7  1  0.145807  0.171689  0.228719  1
  O  O8  1  0.145818  0.828089  0.228703  1
  O  O9  1  0.199872  0.172633  0.057622  1
  O  O10  1  0.300179  0.172601  0.057652  1
  O  O11  1  0.199872  0.827178  0.057588  1
  O  O12  1  0.300178  0.827146  0.057667  1
  O  O13  1  0.160799  0.999892  0.127656  1
  Si  Si14  1  0.311057  0.622066  0.456122  1
  O  O15  1  0.100334  0.140043  0.053269  1
  O  O16  1  0.100336  0.859698  0.053262  1
  O  O17  1  0.250024  0.999860  0.437318  1
  Si  Si18  1  0.188994  0.622072  0.456121  1
  O  O19  1  0.021820  0.999868  0.363758  1
  O  O20  1  0.250024  0.356228  0.443538  1
  O  O21  1  0.250026  0.643526  0.443531  1
  O  O22  1  0.179943  0.499880  0.435073  1
  O  O23  1  0.320107  0.499874  0.435071  1
  O  O24  1  0.000025  0.149053  0.000040  1
  Si  Si25  1  0.134246  0.189636  0.346452  1
  Si  Si26  1  0.134247  0.810117  0.346428  1
  Si  Si27  1  0.152261  0.122959  0.117938  1
  Si  Si28  1  0.152263  0.876825  0.117924  1
  Si  Si29  1  0.188951  0.999870  0.455993  1
  Si  Si30  1  0.311099  0.999870  0.455981  1
  Si  Si31  1  0.018019  0.122514  0.385042  1
  Si  Si32  1  0.018020  0.877222  0.385041  1
  Si  Si33  1  0.188993  0.377690  0.456131  1
  Si  Si34  1  0.311056  0.377684  0.456129  1
  O  O35  1  0.000027  0.850704  0.000031  1
  O  O36  1  0.074338  0.177827  0.860202  1
  O  O37  1  0.074341  0.821943  0.860193  1
  O  O38  1  0.025670  0.171209  0.687138  1
  O  O39  1  0.025664  0.828536  0.687140  1
  O  O40  1  0.118630  0.100314  0.700947  1
  O  O41  1  0.118618  0.899458  0.700930  1
  O  O42  1  0.107093  0.299591  0.710516  1
  O  O43  1  0.107095  0.700174  0.710510  1
  O  O44  1  0.140461  0.499884  0.693867  1
  O  O45  1  0.175209  0.357630  0.573395  1
  O  O46  1  0.324844  0.357624  0.573392  1
  O  O47  1  0.175208  0.642135  0.573384  1
  O  O48  1  0.324846  0.642128  0.573383  1
  O  O49  1  0.200424  0.356374  0.764749  1
  O  O50  1  0.299645  0.356374  0.764751  1
  O  O51  1  0.200426  0.643398  0.764738  1
  O  O52  1  0.299645  0.643390  0.764740  1
  O  O53  1  0.177223  0.999878  0.574539  1
  O  O54  1  0.322839  0.999881  0.574521  1
  O  O55  1  0.199151  0.999858  0.767651  1
  O  O56  1  0.300924  0.999937  0.767633  1
  O  O57  1  0.250037  0.299361  0.930379  1
  O  O58  1  0.250038  0.700422  0.930366  1
  O  O59  1  0.250029  0.100530  0.905036  1
  O  O60  1  0.250065  0.899252  0.905030  1
  Si  Si61  1  0.250035  0.622097  0.835141  1
  O  O62  1  0.058936  0.999880  0.942712  1
  O  O63  1  0.250033  0.499890  0.862627  1
  Si  Si64  1  0.080811  0.190256  0.739604  1
  Si  Si65  1  0.080809  0.809505  0.739596  1
  Si  Si66  1  0.154053  0.377850  0.686272  1
  Si  Si67  1  0.154054  0.621917  0.686264  1
  Si  Si68  1  0.153762  0.999879  0.686135  1
  Si  Si69  1  0.250041  0.999893  0.835501  1
  Si  Si70  1  0.058370  0.122448  0.964931  1
  Si  Si71  1  0.058371  0.877311  0.964926  1
  Si  Si72  1  0.250034  0.377680  0.835148  1
  Si  Si73  1  0.250037  0.810203  0.988829  1
  Si  Si74  1  0.250032  0.189577  0.988838  1
  O  O75  1  0.000036  0.863666  0.500032  1
  O  O76  1  0.000037  0.136068  0.500033  1
  O  O77  1  0.336137  0.100673  0.406942  1
  O  O78  1  0.336147  0.899071  0.406954  1
  O  O79  1  0.426269  0.173696  0.367600  1
  O  O80  1  0.426276  0.826047  0.367604  1
  O  O81  1  0.344486  0.299392  0.387029  1
  O  O82  1  0.344491  0.700354  0.387025  1
  O  O83  1  0.354267  0.171683  0.228721  1
  O  O84  1  0.354275  0.828074  0.228725  1
  O  O85  1  0.399718  0.140051  0.053256  1
  O  O86  1  0.399718  0.859700  0.053260  1
  O  O87  1  0.574336  0.821930  0.139896  1
  O  O88  1  0.574337  0.177815  0.139899  1
  O  O89  1  0.525661  0.828545  0.312950  1
  O  O90  1  0.525654  0.171216  0.312944  1
  O  O91  1  0.618623  0.899442  0.299158  1
  O  O92  1  0.618608  0.100294  0.299176  1
  O  O93  1  0.607087  0.700166  0.289585  1
  O  O94  1  0.607084  0.299586  0.289588  1
  O  O95  1  0.640452  0.499873  0.306229  1
  O  O96  1  0.339270  0.999877  0.127678  1
  Si  Si97  1  0.558367  0.122442  0.035167  1
  O  O98  1  0.478234  0.999877  0.363797  1
  Si  Si99  1  0.558368  0.877305  0.035164  1
  O  O100  1  0.500025  0.850696  0.000045  1
  O  O101  1  0.558930  0.999873  0.057383  1
  Si  Si102  1  0.365813  0.189637  0.346457  1
  Si  Si103  1  0.365820  0.810110  0.346460  1
  Si  Si104  1  0.347800  0.122945  0.117947  1
  Si  Si105  1  0.347801  0.876808  0.117953  1
  Si  Si106  1  0.580805  0.809501  0.260494  1
  Si  Si107  1  0.580802  0.190249  0.260499  1
  Si  Si108  1  0.654046  0.621906  0.313824  1
  Si  Si109  1  0.654047  0.377840  0.313823  1
  Si  Si110  1  0.653755  0.999877  0.313969  1
  Si  Si111  1  0.482039  0.122523  0.385075  1
  Si  Si112  1  0.482044  0.877232  0.385079  1
  O  O113  1  0.500025  0.149052  0.000048  1
  O  O114  1  0.663916  0.899076  0.593140  1
  O  O115  1  0.663920  0.100677  0.593136  1
  O  O116  1  0.573793  0.826056  0.632545  1
  O  O117  1  0.573797  0.173702  0.632523  1
  O  O118  1  0.655572  0.700359  0.613065  1
  O  O119  1  0.655576  0.299395  0.613068  1
  O  O120  1  0.645809  0.828071  0.771381  1
  O  O121  1  0.645805  0.171675  0.771378  1
  O  O122  1  0.600337  0.859698  0.946835  1
  O  O123  1  0.600334  0.140048  0.946834  1
  O  O124  1  0.425712  0.177818  0.860193  1
  O  O125  1  0.425712  0.821933  0.860196  1
  O  O126  1  0.474412  0.171236  0.687163  1
  O  O127  1  0.474401  0.828548  0.687157  1
  O  O128  1  0.381461  0.100304  0.700894  1
  O  O129  1  0.381439  0.899452  0.700926  1
  O  O130  1  0.392974  0.299597  0.710503  1
  O  O131  1  0.392971  0.700174  0.710493  1
  O  O132  1  0.359606  0.499881  0.693852  1
  O  O133  1  0.521831  0.999884  0.636333  1
  O  O134  1  0.441122  0.999876  0.942700  1
  Si  Si135  1  0.634252  0.810113  0.653650  1
  Si  Si136  1  0.634255  0.189638  0.653645  1
  Si  Si137  1  0.652260  0.876806  0.882159  1
  Si  Si138  1  0.652257  0.122941  0.882156  1
  Si  Si139  1  0.419259  0.190264  0.739592  1
  Si  Si140  1  0.419252  0.809505  0.739595  1
  Si  Si141  1  0.346011  0.377848  0.686263  1
  Si  Si142  1  0.346012  0.621913  0.686255  1
  Si  Si143  1  0.346310  0.999891  0.686109  1
  Si  Si144  1  0.518026  0.877238  0.615050  1
  Si  Si145  1  0.518028  0.122529  0.615043  1
  Si  Si146  1  0.441683  0.122444  0.964923  1
  Si  Si147  1  0.441683  0.877307  0.964926  1
  O  O148  1  0.660788  0.999874  0.872435  1
  O  O149  1  0.500042  0.863683  0.500061  1
  O  O150  1  0.500035  0.136078  0.500058  1
  O  O151  1  0.925716  0.821925  0.139877  1
  O  O152  1  0.925711  0.177811  0.139886  1
  O  O153  1  0.974397  0.828527  0.312931  1
  O  O154  1  0.974398  0.171215  0.312930  1
  O  O155  1  0.881441  0.899435  0.299146  1
  O  O156  1  0.881446  0.100289  0.299163  1
  O  O157  1  0.892967  0.700157  0.289565  1
  O  O158  1  0.892967  0.299581  0.289571  1
  O  O159  1  0.859600  0.499869  0.306216  1
  O  O160  1  0.824852  0.642123  0.426693  1
  O  O161  1  0.675208  0.642127  0.426697  1
  O  O162  1  0.824848  0.357620  0.426693  1
  O  O163  1  0.675212  0.357621  0.426696  1
  O  O164  1  0.799634  0.643379  0.235345  1
  O  O165  1  0.700414  0.643381  0.235340  1
  O  O166  1  0.799633  0.356359  0.235341  1
  O  O167  1  0.700412  0.356360  0.235334  1
  O  O168  1  0.822839  0.999857  0.425551  1
  O  O169  1  0.677223  0.999871  0.425561  1
  O  O170  1  0.800915  0.999879  0.232445  1
  O  O171  1  0.699142  0.999903  0.232444  1
  O  O172  1  0.750029  0.700406  0.069718  1
  O  O173  1  0.750030  0.299345  0.069707  1
  O  O174  1  0.750027  0.899235  0.095065  1
  O  O175  1  0.750039  0.100515  0.095044  1
  O  O176  1  0.941121  0.999874  0.057376  1
  O  O177  1  0.750025  0.499873  0.137459  1
  Si  Si178  1  0.919253  0.809488  0.260476  1
  Si  Si179  1  0.919250  0.190247  0.260485  1
  Si  Si180  1  0.846008  0.621902  0.313815  1
  Si  Si181  1  0.846006  0.377836  0.313815  1
  Si  Si182  1  0.846305  0.999864  0.313959  1
  Si  Si183  1  0.750029  0.999883  0.164586  1
  Si  Si184  1  0.941684  0.877306  0.035149  1
  Si  Si185  1  0.941682  0.122442  0.035154  1
  Si  Si186  1  0.750025  0.622080  0.164943  1
  Si  Si187  1  0.750024  0.377664  0.164938  1
  Si  Si188  1  0.750031  0.189563  0.011244  1
  Si  Si189  1  0.750030  0.810191  0.011261  1
  O  O190  1  0.836154  0.899070  0.593128  1
  O  O191  1  0.836159  0.100672  0.593112  1
  O  O192  1  0.926277  0.826049  0.632516  1
  O  O193  1  0.926282  0.173698  0.632512  1
  O  O194  1  0.844496  0.700354  0.613053  1
  O  O195  1  0.844498  0.299390  0.613051  1
  O  O196  1  0.854256  0.828066  0.771364  1
  O  O197  1  0.854262  0.171668  0.771352  1
  O  O198  1  0.800182  0.827151  0.942459  1
  O  O199  1  0.699875  0.827153  0.942470  1
  O  O200  1  0.800179  0.172605  0.942430  1
  O  O201  1  0.699872  0.172597  0.942466  1
  O  O202  1  0.839265  0.999874  0.872410  1
  Si  Si203  1  0.689001  0.377686  0.543957  1
  O  O204  1  0.899720  0.859701  0.946812  1
  O  O205  1  0.899718  0.140048  0.946818  1
  O  O206  1  0.750035  0.999873  0.562767  1
  Si  Si207  1  0.811065  0.377683  0.543956  1
  O  O208  1  0.978243  0.999871  0.636299  1
  O  O209  1  0.750032  0.643526  0.556541  1
  O  O210  1  0.750033  0.356226  0.556549  1
  O  O211  1  0.820114  0.499874  0.565011  1
  O  O212  1  0.679951  0.499877  0.565011  1
  Si  Si213  1  0.865819  0.810108  0.653634  1
  Si  Si214  1  0.865823  0.189633  0.653623  1
  Si  Si215  1  0.847796  0.876806  0.882139  1
  Si  Si216  1  0.847798  0.122942  0.882131  1
  Si  Si217  1  0.811109  0.999869  0.544095  1
  Si  Si218  1  0.688961  0.999873  0.544103  1
  Si  Si219  1  0.982045  0.877225  0.615018  1
  Si  Si220  1  0.982049  0.122517  0.615021  1
  Si  Si221  1  0.811064  0.622064  0.543954  1
  Si  Si222  1  0.689000  0.622068  0.543957  1
