# generated using pymatgen
data_SiO2
_symmetry_space_group_name_H-M   'P 1'
_cell_length_a   20.02842043
_cell_length_b   7.17685991
_cell_length_c   9.59387065
_cell_angle_alpha   90.00000000
_cell_angle_beta   90.00000000
_cell_angle_gamma   90.00000000
_symmetry_Int_Tables_number   1
_chemical_formula_structural   SiO2
_chemical_formula_sum   'Si24 O48'
_cell_volume   1379.03416985
_cell_formula_units_Z   24
loop_
 _symmetry_equiv_pos_site_id
 _symmetry_equiv_pos_as_xyz
  1  'x, y, z'
loop_
 _atom_site_type_symbol
 _atom_site_label
 _atom_site_symmetry_multiplicity
 _atom_site_fract_x
 _atom_site_fract_y
 _atom_site_fract_z
 _atom_site_occupancy
  O  O1  1  0.207916  0.493063  0.000448  1
  O  O2  1  0.793037  0.500393  0.999964  1
  O  O3  1  0.707306  0.499890  0.500000  1
  O  O4  1  0.292257  0.499915  0.501229  1
  O  O5  1  0.128349  0.606468  0.811690  1
  O  O6  1  0.872231  0.604037  0.808061  1
  O  O7  1  0.628215  0.394363  0.308365  1
  O  O8  1  0.372383  0.394527  0.309558  1
  O  O9  1  0.872108  0.393306  0.191255  1
  O  O10  1  0.128135  0.389060  0.190817  1
  O  O11  1  0.372073  0.606051  0.691975  1
  O  O12  1  0.628073  0.605432  0.691543  1
  O  O13  1  0.168898  0.002369  0.999955  1
  O  O14  1  0.829247  0.000685  0.001081  1
  O  O15  1  0.669905  0.999770  0.500114  1
  O  O16  1  0.332157  0.000635  0.500571  1
  O  O17  1  0.171805  0.718897  0.180686  1
  O  O18  1  0.826944  0.723727  0.187853  1
  O  O19  1  0.673116  0.275906  0.687165  1
  O  O20  1  0.327311  0.277433  0.685807  1
  O  O21  1  0.826425  0.275767  0.813035  1
  O  O22  1  0.172881  0.277170  0.811583  1
  O  O23  1  0.326871  0.723031  0.316065  1
  O  O24  1  0.673121  0.723961  0.312918  1
  O  O25  1  0.249992  0.544595  0.751480  1
  O  O26  1  0.750027  0.543179  0.750021  1
  O  O27  1  0.750170  0.457019  0.249829  1
  O  O28  1  0.250043  0.454167  0.251063  1
  O  O29  1  0.095876  0.958011  0.800617  1
  O  O30  1  0.903640  0.956350  0.800478  1
  O  O31  1  0.594480  0.042231  0.300465  1
  O  O32  1  0.406389  0.041722  0.306973  1
  O  O33  1  0.905578  0.041298  0.199530  1
  O  O34  1  0.093339  0.040537  0.196364  1
  O  O35  1  0.406463  0.958629  0.693935  1
  O  O36  1  0.594388  0.957611  0.699666  1
  O  O37  1  0.081296  0.221803  0.989068  1
  O  O38  1  0.917579  0.218987  0.991450  1
  O  O39  1  0.582148  0.779565  0.491708  1
  O  O40  1  0.418410  0.773910  0.491103  1
  O  O41  1  0.916599  0.779174  0.007670  1
  O  O42  1  0.082009  0.782154  0.009684  1
  O  O43  1  0.418711  0.226452  0.509892  1
  O  O44  1  0.582289  0.220312  0.508373  1
  O  O45  1  0.999617  0.296072  0.184367  1
  O  O46  1  0.500201  0.702192  0.685150  1
  O  O47  1  0.000403  0.711950  0.818323  1
  O  O48  1  0.500361  0.297622  0.315184  1
  Si  Si49  1  0.191468  0.510430  0.159621  1
  Si  Si50  1  0.809089  0.518814  0.160400  1
  Si  Si51  1  0.691290  0.480944  0.660363  1
  Si  Si52  1  0.308495  0.482974  0.661456  1
  Si  Si53  1  0.808859  0.481099  0.839453  1
  Si  Si54  1  0.191328  0.481227  0.840363  1
  Si  Si55  1  0.308667  0.516923  0.340962  1
  Si  Si56  1  0.691384  0.518947  0.339598  1
  Si  Si57  1  0.072005  0.243312  0.154183  1
  Si  Si58  1  0.927074  0.242798  0.156365  1
  Si  Si59  1  0.572910  0.755476  0.657007  1
  Si  Si60  1  0.427623  0.752032  0.654600  1
  Si  Si61  1  0.925615  0.755952  0.843589  1
  Si  Si62  1  0.074810  0.758075  0.846996  1
  Si  Si63  1  0.427837  0.248031  0.346375  1
  Si  Si64  1  0.573084  0.244432  0.343084  1
  Si  Si65  1  0.130826  0.882220  0.116598  1
  Si  Si66  1  0.867611  0.881376  0.120295  1
  Si  Si67  1  0.631988  0.118415  0.620332  1
  Si  Si68  1  0.369578  0.125142  0.616785  1
  Si  Si69  1  0.867193  0.118362  0.880467  1
  Si  Si70  1  0.131438  0.121867  0.879243  1
  Si  Si71  1  0.369331  0.875721  0.384304  1
  Si  Si72  1  0.631956  0.881275  0.379863  1
