# generated using pymatgen
data_SiO2
_symmetry_space_group_name_H-M   'P 1'
_cell_length_a   13.56301391
_cell_length_b   13.56605876
_cell_length_c   43.96755937
_cell_angle_alpha   90.00000000
_cell_angle_beta   90.00000000
_cell_angle_gamma   120.00000000
_symmetry_Int_Tables_number   1
_chemical_formula_structural   SiO2
_chemical_formula_sum   'Si108 O216'
_cell_volume   7006.04449967
_cell_formula_units_Z   108
loop_
 _symmetry_equiv_pos_site_id
 _symmetry_equiv_pos_as_xyz
  1  'x, y, z'
loop_
 _atom_site_type_symbol
 _atom_site_label
 _atom_site_symmetry_multiplicity
 _atom_site_fract_x
 _atom_site_fract_y
 _atom_site_fract_z
 _atom_site_occupancy
  Si  Si1  1  0.000705  0.227076  0.034984  1
  Si  Si2  1  0.000646  0.772972  0.035087  1
  O  O3  1  0.000495  0.746345  0.000085  1
  O  O4  1  0.117706  0.233769  0.042466  1
  O  O5  1  0.747184  0.746528  0.000084  1
  O  O6  1  0.747450  0.999955  0.000015  1
  O  O7  1  0.767101  0.883218  0.042567  1
  Si  Si8  1  0.667904  0.106578  0.076152  1
  Si  Si9  1  0.894388  0.560465  0.076237  1
  Si  Si10  1  0.440307  0.333364  0.076159  1
  Si  Si11  1  0.894765  0.333421  0.076214  1
  Si  Si12  1  0.667604  0.560611  0.076283  1
  Si  Si13  1  0.440665  0.106717  0.076095  1
  Si  Si14  1  0.668038  0.106094  0.146146  1
  Si  Si15  1  0.894426  0.559733  0.146228  1
  Si  Si16  1  0.440623  0.332956  0.146145  1
  Si  Si17  1  0.894947  0.332934  0.146210  1
  Si  Si18  1  0.667683  0.560032  0.146279  1
  Si  Si19  1  0.441048  0.106324  0.146092  1
  Si  Si20  1  0.773862  0.772963  0.035077  1
  Si  Si21  1  0.219766  0.000193  0.035004  1
  Si  Si22  1  0.774083  0.000272  0.035009  1
  Si  Si23  1  0.227887  0.226865  0.034954  1
  O  O24  1  0.667105  0.079518  0.111130  1
  O  O25  1  0.921126  0.586001  0.111242  1
  O  O26  1  0.414391  0.333918  0.111167  1
  O  O27  1  0.921642  0.334053  0.111197  1
  O  O28  1  0.666893  0.586331  0.111299  1
  O  O29  1  0.415018  0.079803  0.111093  1
  O  O30  1  0.551265  0.100603  0.068641  1
  O  O31  1  0.900757  0.450051  0.068747  1
  O  O32  1  0.550760  0.450246  0.068765  1
  O  O33  1  0.768123  0.233238  0.072312  1
  O  O34  1  0.767751  0.534086  0.072338  1
  O  O35  1  0.466959  0.233324  0.072206  1
  O  O36  1  0.695848  0.028432  0.055534  1
  O  O37  1  0.972592  0.666771  0.055691  1
  O  O38  1  0.334128  0.305133  0.055543  1
  O  O39  1  0.972769  0.305361  0.055567  1
  O  O40  1  0.695740  0.666856  0.055714  1
  O  O41  1  0.334362  0.028367  0.055548  1
  O  O42  1  0.768526  0.232463  0.150238  1
  O  O43  1  0.767958  0.533732  0.150288  1
  O  O44  1  0.466982  0.232734  0.150128  1
  O  O45  1  0.201427  0.100294  0.038881  1
  O  O46  1  0.900550  0.799577  0.039004  1
  O  O47  1  0.551316  0.099805  0.153662  1
  O  O48  1  0.901128  0.449557  0.153787  1
  O  O49  1  0.550760  0.449773  0.153768  1
  O  O50  1  0.117858  0.883063  0.042537  1
  O  O51  1  0.900678  0.100445  0.038936  1
  O  O52  1  0.695620  0.027418  0.166661  1
  O  O53  1  0.334807  0.027500  0.166595  1
  O  O54  1  0.973591  0.305059  0.166667  1
  O  O55  1  0.002530  0.253166  0.222146  1
  O  O56  1  0.002377  0.746835  0.222135  1
  Si  Si57  1  0.001916  0.226406  0.257134  1
  Si  Si58  1  0.001869  0.772742  0.257140  1
  Si  Si59  1  0.001253  0.226328  0.187139  1
  Si  Si60  1  0.001306  0.772602  0.187139  1
  Si  Si61  1  0.774985  0.772685  0.257239  1
  Si  Si62  1  0.229558  0.999617  0.257189  1
  Si  Si63  1  0.774812  0.999826  0.257178  1
  Si  Si64  1  0.229143  0.226244  0.257240  1
  Si  Si65  1  0.774521  0.772782  0.187239  1
  Si  Si66  1  0.228629  0.999405  0.187192  1
  Si  Si67  1  0.774162  0.999661  0.187184  1
  Si  Si68  1  0.228241  0.226058  0.187247  1
  Si  Si69  1  0.669417  0.106595  0.298434  1
  Si  Si70  1  0.895488  0.560013  0.298193  1
  Si  Si71  1  0.441564  0.332977  0.298434  1
  Si  Si72  1  0.896298  0.333212  0.298298  1
  Si  Si73  1  0.668808  0.560167  0.298381  1
  Si  Si74  1  0.442122  0.106544  0.298334  1
  O  O75  1  0.748079  0.746839  0.222250  1
  O  O76  1  0.255101  0.998652  0.222167  1
  O  O77  1  0.747654  0.998952  0.222201  1
  O  O78  1  0.254669  0.252978  0.222229  1
  O  O79  1  0.118443  0.232202  0.264651  1
  O  O80  1  0.768597  0.883118  0.264680  1
  O  O81  1  0.118905  0.882945  0.264640  1
  O  O82  1  0.901560  0.099859  0.261028  1
  O  O83  1  0.901741  0.799309  0.261112  1
  O  O84  1  0.203015  0.099723  0.261132  1
  O  O85  1  0.974298  0.304821  0.277738  1
  O  O86  1  0.696911  0.666496  0.277831  1
  O  O87  1  0.335924  0.027969  0.277761  1
  O  O88  1  0.697083  0.028111  0.277863  1
  O  O89  1  0.973624  0.666303  0.277629  1
  O  O90  1  0.335148  0.304616  0.277874  1
  O  O91  1  0.900634  0.099990  0.183108  1
  O  O92  1  0.901008  0.798883  0.183128  1
  O  O93  1  0.202331  0.099662  0.183230  1
  O  O94  1  0.695714  0.666314  0.166817  1
  O  O95  1  0.769648  0.233104  0.294441  1
  O  O96  1  0.922863  0.333587  0.333300  1
  O  O97  1  0.551572  0.450144  0.290899  1
  O  O98  1  0.117902  0.232417  0.179635  1
  O  O99  1  0.767731  0.882895  0.179663  1
  O  O100  1  0.118304  0.882653  0.179593  1
  O  O101  1  0.468325  0.233060  0.294428  1
  O  O102  1  0.768761  0.533406  0.294349  1
  O  O103  1  0.552495  0.099956  0.290871  1
  O  O104  1  0.902877  0.450085  0.290720  1
  O  O105  1  0.922195  0.586612  0.333172  1
  O  O106  1  0.973141  0.666086  0.166692  1
  O  O107  1  0.334348  0.304745  0.166704  1
  O  O108  1  0.002809  0.638889  0.388654  1
  O  O109  1  0.002910  0.362133  0.388827  1
  O  O110  1  0.000839  0.361126  0.499935  1
  O  O111  1  0.000953  0.638945  0.499867  1
  O  O112  1  0.362136  0.999547  0.499958  1
  O  O113  1  0.669366  0.080127  0.333436  1
  O  O114  1  0.786185  0.567382  0.375803  1
  O  O115  1  0.568957  0.433717  0.372349  1
  Si  Si116  1  0.335984  0.439885  0.409564  1
  Si  Si117  1  0.562992  0.894018  0.409593  1
  Si  Si118  1  0.108666  0.666935  0.409388  1
  Si  Si119  1  0.562871  0.666686  0.409585  1
  Si  Si120  1  0.336107  0.893994  0.409469  1
  Si  Si121  1  0.108869  0.440225  0.409483  1
  Si  Si122  1  0.334550  0.439949  0.479558  1
  Si  Si123  1  0.561918  0.893736  0.479589  1
  Si  Si124  1  0.107355  0.666608  0.479381  1
  Si  Si125  1  0.561650  0.666572  0.479579  1
  Si  Si126  1  0.334833  0.893352  0.479459  1
  Si  Si127  1  0.107341  0.439754  0.479477  1
  Si  Si128  1  0.668983  0.560368  0.368390  1
  Si  Si129  1  0.442595  0.106523  0.368339  1
  Si  Si130  1  0.896499  0.333835  0.368296  1
  Si  Si131  1  0.442305  0.333584  0.368443  1
  Si  Si132  1  0.669348  0.106503  0.368438  1
  Si  Si133  1  0.896281  0.560445  0.368193  1
  O  O134  1  0.334381  0.413167  0.444583  1
  O  O135  1  0.589228  0.919822  0.444612  1
  O  O136  1  0.081989  0.667604  0.444345  1
  O  O137  1  0.589019  0.667388  0.444618  1
  O  O138  1  0.334715  0.919647  0.444459  1
  O  O139  1  0.082178  0.413208  0.444448  1
  O  O140  1  0.219383  0.433901  0.402045  1
  O  O141  1  0.569237  0.783500  0.402130  1
  O  O142  1  0.219328  0.783610  0.401960  1
  O  O143  1  0.436251  0.566482  0.405636  1
  O  O144  1  0.436347  0.867548  0.405611  1
  O  O145  1  0.135362  0.566875  0.405584  1
  O  O146  1  0.364126  0.361591  0.389058  1
  O  O147  1  0.641292  0.000285  0.389037  1
  O  O148  1  0.641054  0.638580  0.389014  1
  O  O149  1  0.364297  0.000216  0.388882  1
  O  O150  1  0.435027  0.566392  0.483574  1
  O  O151  1  0.435303  0.867394  0.483551  1
  O  O152  1  0.133210  0.566125  0.483496  1
  O  O153  1  0.786465  0.216736  0.375883  1
  O  O154  1  0.415545  0.333255  0.333455  1
  O  O155  1  0.217721  0.433462  0.487080  1
  O  O156  1  0.568513  0.783514  0.487149  1
  O  O157  1  0.217876  0.783165  0.486952  1
  O  O158  1  0.869869  0.433883  0.372191  1
  O  O159  1  0.435567  0.216569  0.375898  1
  O  O160  1  0.569235  0.133051  0.372326  1
  O  O161  1  0.668890  0.586643  0.333382  1
  O  O162  1  0.416030  0.080146  0.333343  1
  O  O163  1  0.000126  0.361423  0.611138  1
  O  O164  1  0.000146  0.638298  0.611116  1
  O  O165  1  0.433760  0.867007  0.627720  1
  O  O166  1  0.216529  0.783375  0.624172  1
  O  O167  1  0.361986  0.361227  0.500083  1
  O  O168  1  0.567429  0.783478  0.624142  1
  Si  Si169  1  0.666705  0.559894  0.590590  1
  Si  Si170  1  0.439759  0.105903  0.590477  1
  Si  Si171  1  0.894120  0.333411  0.590472  1
  Si  Si172  1  0.439769  0.333149  0.590561  1
  Si  Si173  1  0.666778  0.106202  0.590546  1
  Si  Si174  1  0.894188  0.560268  0.590444  1
  Si  Si175  1  0.667279  0.559629  0.520596  1
  Si  Si176  1  0.440239  0.105943  0.520480  1
  Si  Si177  1  0.894598  0.333493  0.520476  1
  Si  Si178  1  0.440215  0.332975  0.520562  1
  Si  Si179  1  0.667402  0.106482  0.520551  1
  Si  Si180  1  0.894793  0.560440  0.520450  1
  Si  Si181  1  0.333677  0.439690  0.631669  1
  Si  Si182  1  0.560431  0.893593  0.631655  1
  Si  Si183  1  0.106359  0.666349  0.631707  1
  Si  Si184  1  0.560458  0.666386  0.631665  1
  Si  Si185  1  0.333634  0.893529  0.631655  1
  Si  Si186  1  0.106393  0.439653  0.631707  1
  O  O187  1  0.667774  0.586445  0.555579  1
  O  O188  1  0.413247  0.079949  0.555471  1
  O  O189  1  0.920338  0.332568  0.555490  1
  O  O190  1  0.413277  0.332273  0.555547  1
  O  O191  1  0.667973  0.080490  0.555553  1
  O  O192  1  0.920527  0.587240  0.555460  1
  O  O193  1  0.783566  0.566257  0.597982  1
  O  O194  1  0.433374  0.216308  0.597985  1
  O  O195  1  0.783496  0.216792  0.597988  1
  O  O196  1  0.566461  0.433267  0.594516  1
  O  O197  1  0.566467  0.132517  0.594420  1
  O  O198  1  0.867691  0.433621  0.594318  1
  O  O199  1  0.638688  0.638183  0.611134  1
  O  O200  1  0.361616  0.999703  0.611060  1
  O  O201  1  0.361634  0.361331  0.611123  1
  O  O202  1  0.638695  0.999973  0.611122  1
  O  O203  1  0.566827  0.433177  0.516552  1
  O  O204  1  0.566829  0.132288  0.516475  1
  O  O205  1  0.868758  0.434010  0.516432  1
  O  O206  1  0.640027  0.000125  0.500115  1
  O  O207  1  0.433806  0.566301  0.627717  1
  O  O208  1  0.784182  0.566447  0.512978  1
  O  O209  1  0.433434  0.216088  0.512953  1
  O  O210  1  0.784128  0.216808  0.512963  1
  O  O211  1  0.216568  0.432761  0.624176  1
  O  O212  1  0.132906  0.566265  0.627774  1
  O  O213  1  0.639725  0.638366  0.500128  1
  O  O214  1  0.333446  0.919933  0.666650  1
  O  O215  1  0.586840  0.919924  0.666659  1
  O  O216  1  0.028288  0.694989  0.722266  1
  O  O217  1  0.028324  0.333347  0.722264  1
  Si  Si218  1  0.000336  0.773191  0.742864  1
  Si  Si219  1  0.000499  0.773321  0.812859  1
  Si  Si220  1  0.000434  0.227191  0.812837  1
  O  O221  1  0.028322  0.333590  0.833316  1
  Si  Si222  1  0.000265  0.227138  0.742842  1
  O  O223  1  0.305918  0.333565  0.833295  1
  O  O224  1  0.333500  0.413331  0.666677  1
  O  O225  1  0.999579  0.746486  0.777862  1
  O  O226  1  0.999530  0.253084  0.777838  1
  O  O227  1  0.233217  0.466201  0.705633  1
  O  O228  1  0.233129  0.766947  0.705628  1
  O  O229  1  0.883601  0.116954  0.820399  1
  O  O230  1  0.450331  0.900447  0.709169  1
  O  O231  1  0.233901  0.116967  0.820377  1
  Si  Si232  1  0.227145  0.227163  0.742819  1
  Si  Si233  1  0.772922  0.999939  0.742854  1
  Si  Si234  1  0.227248  0.999973  0.742833  1
  Si  Si235  1  0.773027  0.773173  0.742856  1
  Si  Si236  1  0.227324  0.227202  0.812816  1
  Si  Si237  1  0.773308  0.000158  0.812847  1
  Si  Si238  1  0.219196  0.000174  0.812828  1
  Si  Si239  1  0.773414  0.773370  0.812850  1
  Si  Si240  1  0.333253  0.893547  0.701660  1
  Si  Si241  1  0.106554  0.439655  0.701711  1
  Si  Si242  1  0.560581  0.666861  0.701674  1
  Si  Si243  1  0.106478  0.666834  0.701711  1
  Si  Si244  1  0.333320  0.439659  0.701676  1
  Si  Si245  1  0.560505  0.893529  0.701662  1
  O  O246  1  0.253974  0.253094  0.777812  1
  O  O247  1  0.747116  0.000865  0.777857  1
  O  O248  1  0.254124  0.000887  0.777825  1
  O  O249  1  0.747263  0.746478  0.777860  1
  O  O250  1  0.883607  0.767031  0.735391  1
  O  O251  1  0.233422  0.116677  0.735357  1
  O  O252  1  0.883465  0.116663  0.735378  1
  O  O253  1  0.100560  0.899811  0.738953  1
  O  O254  1  0.100454  0.200658  0.738923  1
  O  O255  1  0.799425  0.899787  0.738950  1
  O  O256  1  0.305260  0.333346  0.722224  1
  O  O257  1  0.666742  0.971815  0.722240  1
  O  O258  1  0.305286  0.971867  0.722211  1
  O  O259  1  0.666867  0.694991  0.722254  1
  O  O260  1  0.100930  0.899768  0.816881  1
  O  O261  1  0.100834  0.201103  0.816871  1
  O  O262  1  0.799458  0.899820  0.816869  1
  O  O263  1  0.533988  0.766916  0.705605  1
  O  O264  1  0.080080  0.413262  0.666712  1
  O  O265  1  0.450428  0.549787  0.709190  1
  O  O266  1  0.099570  0.549772  0.709228  1
  O  O267  1  0.883747  0.766916  0.820410  1
  O  O268  1  0.080007  0.666584  0.666705  1
  O  O269  1  0.586882  0.666630  0.666673  1
  O  O270  1  0.028675  0.333293  0.944392  1
  O  O271  1  0.028811  0.694904  0.944493  1
  Si  Si272  1  0.000687  0.227082  0.964983  1
  Si  Si273  1  0.000756  0.773055  0.965094  1
  O  O274  1  0.000658  0.253478  0.999984  1
  O  O275  1  0.028249  0.694760  0.833366  1
  O  O276  1  0.305937  0.972365  0.833333  1
  O  O277  1  0.667068  0.972307  0.833392  1
  O  O278  1  0.667173  0.694833  0.833380  1
  O  O279  1  0.100330  0.550184  0.846285  1
  O  O280  1  0.450571  0.550129  0.846299  1
  O  O281  1  0.800031  0.899525  0.961094  1
  O  O282  1  0.883675  0.116808  0.957481  1
  O  O283  1  0.254117  0.253579  0.999957  1
  O  O284  1  0.450495  0.900233  0.846310  1
  O  O285  1  0.883627  0.766087  0.957585  1
  O  O286  1  0.234411  0.116890  0.957484  1
  O  O287  1  0.100766  0.200498  0.961042  1
  O  O288  1  0.100810  0.899658  0.961162  1
  Si  Si289  1  0.333639  0.893550  0.923823  1
  Si  Si290  1  0.106794  0.439532  0.923814  1
  Si  Si291  1  0.560907  0.666743  0.923886  1
  Si  Si292  1  0.106751  0.666747  0.923855  1
  Si  Si293  1  0.333640  0.439489  0.923806  1
  Si  Si294  1  0.560967  0.893596  0.923895  1
  Si  Si295  1  0.333670  0.893728  0.853826  1
  Si  Si296  1  0.106881  0.439905  0.853819  1
  Si  Si297  1  0.560814  0.666911  0.853892  1
  Si  Si298  1  0.106752  0.666900  0.853868  1
  Si  Si299  1  0.333748  0.439837  0.853821  1
  Si  Si300  1  0.560775  0.893727  0.853901  1
  Si  Si301  1  0.227443  0.227022  0.964960  1
  Si  Si302  1  0.773610  0.999692  0.965010  1
  Si  Si303  1  0.235664  0.999805  0.964997  1
  Si  Si304  1  0.773385  0.772893  0.965073  1
  O  O305  1  0.334512  0.920333  0.888827  1
  O  O306  1  0.080062  0.413772  0.888812  1
  O  O307  1  0.586836  0.666038  0.888886  1
  O  O308  1  0.079929  0.665987  0.888867  1
  O  O309  1  0.334501  0.413690  0.888804  1
  O  O310  1  0.586838  0.920449  0.888899  1
  O  O311  1  0.450388  0.899800  0.931337  1
  O  O312  1  0.100537  0.550015  0.931310  1
  O  O313  1  0.450359  0.549984  0.931315  1
  O  O314  1  0.233434  0.766902  0.927743  1
  O  O315  1  0.233418  0.465891  0.927726  1
  O  O316  1  0.534442  0.766923  0.927793  1
  O  O317  1  0.305627  0.971799  0.944382  1
  O  O318  1  0.667036  0.694714  0.944507  1
  O  O319  1  0.305626  0.333239  0.944365  1
  O  O320  1  0.667207  0.971668  0.944491  1
  O  O321  1  0.233220  0.767286  0.849809  1
  O  O322  1  0.233362  0.465954  0.849790  1
  O  O323  1  0.534699  0.767271  0.849862  1
  O  O324  1  0.254191  0.000005  0.999990  1
