# generated using pymatgen
data_SiO2
_symmetry_space_group_name_H-M   'P 1'
_cell_length_a   14.02724508
_cell_length_b   19.96193813
_cell_length_c   12.41657866
_cell_angle_alpha   90.00000000
_cell_angle_beta   106.08000000
_cell_angle_gamma   90.00000000
_symmetry_Int_Tables_number   1
_chemical_formula_structural   SiO2
_chemical_formula_sum   'Si56 O112'
_cell_volume   3340.75274181
_cell_formula_units_Z   56
loop_
 _symmetry_equiv_pos_site_id
 _symmetry_equiv_pos_as_xyz
  1  'x, y, z'
loop_
 _atom_site_type_symbol
 _atom_site_label
 _atom_site_symmetry_multiplicity
 _atom_site_fract_x
 _atom_site_fract_y
 _atom_site_fract_z
 _atom_site_occupancy
  O  O1  1  0.359841  0.155823  0.519885  1
  Si  Si2  1  0.409706  0.172535  0.645717  1
  O  O3  1  0.432753  0.249817  0.658305  1
  O  O4  1  0.334302  0.155075  0.713067  1
  O  O5  1  0.187193  0.150272  0.384866  1
  O  O6  1  0.298960  0.048248  0.416808  1
  O  O7  1  0.345059  0.148911  0.311570  1
  O  O8  1  0.165760  0.150415  0.747283  1
  O  O9  1  0.331593  0.152427  0.915230  1
  O  O10  1  0.280037  0.048906  0.789596  1
  Si  Si11  1  0.409463  0.327071  0.645912  1
  O  O12  1  0.450456  0.249865  0.285416  1
  O  O13  1  0.409271  0.161410  0.132094  1
  Si  Si14  1  0.087414  0.326561  0.408193  1
  O  O15  1  0.445617  0.250384  0.001796  1
  O  O16  1  0.100807  0.165681  0.538031  1
  Si  Si17  1  0.087724  0.173195  0.408353  1
  O  O18  1  0.049561  0.249850  0.662888  1
  O  O19  1  0.068736  0.249859  0.380740  1
  Si  Si20  1  0.071469  0.326558  0.651439  1
  Si  Si21  1  0.297030  0.126018  0.406005  1
  Si  Si22  1  0.276559  0.126870  0.794137  1
  Si  Si23  1  0.431631  0.172695  0.262337  1
  Si  Si24  1  0.431578  0.327080  0.262908  1
  Si  Si25  1  0.425560  0.173119  0.012844  1
  Si  Si26  1  0.424952  0.327511  0.013361  1
  Si  Si27  1  0.071599  0.173153  0.651526  1
  O  O28  1  0.499142  0.001062  0.001949  1
  O  O29  1  0.476398  0.627686  0.680922  1
  O  O30  1  0.334487  0.344566  0.713800  1
  O  O31  1  0.186820  0.349649  0.384719  1
  O  O32  1  0.298919  0.451556  0.417178  1
  O  O33  1  0.345094  0.350796  0.312264  1
  O  O34  1  0.165554  0.349416  0.747158  1
  O  O35  1  0.330980  0.348032  0.915656  1
  O  O36  1  0.279691  0.451033  0.789190  1
  Si  Si37  1  0.064624  0.559464  0.650156  1
  O  O38  1  0.335594  0.556112  0.716470  1
  O  O39  1  0.486211  0.500417  0.684200  1
  O  O40  1  0.361466  0.556799  0.521317  1
  O  O41  1  0.349644  0.549154  0.313490  1
  O  O42  1  0.418918  0.554154  0.135838  1
  O  O43  1  0.100644  0.334028  0.537920  1
  O  O44  1  0.021050  0.625407  0.361893  1
  O  O45  1  0.002826  0.625830  0.648308  1
  O  O46  1  0.163703  0.551737  0.748166  1
  O  O47  1  0.333891  0.551475  0.918221  1
  O  O48  1  0.186561  0.553255  0.384777  1
  O  O49  1  0.010621  0.499858  0.354868  1
  O  O50  1  0.093911  0.555944  0.536486  1
  Si  Si51  1  0.081556  0.559631  0.406757  1
  Si  Si52  1  0.296761  0.373791  0.406331  1
  Si  Si53  1  0.276253  0.373087  0.794146  1
  Si  Si54  1  0.414587  0.561353  0.649702  1
  Si  Si55  1  0.442462  0.558008  0.266575  1
  Si  Si56  1  0.275187  0.529022  0.796011  1
  Si  Si57  1  0.297112  0.529421  0.405823  1
  Si  Si58  1  0.433507  0.559863  0.015398  1
  O  O59  1  0.499094  0.625101  0.308876  1
  O  O60  1  0.359106  0.343800  0.520236  1
  O  O61  1  0.408651  0.338682  0.132686  1
  O  O62  1  0.487495  0.627022  0.000382  1
  O  O63  1  0.476227  0.872013  0.680509  1
  O  O64  1  0.335427  0.943715  0.716398  1
  O  O65  1  0.485767  0.999241  0.683339  1
  O  O66  1  0.360775  0.942819  0.521053  1
  O  O67  1  0.349427  0.950348  0.313568  1
  O  O68  1  0.417874  0.944300  0.135831  1
  O  O69  1  0.488483  0.874174  0.999224  1
  O  O70  1  0.021059  0.874330  0.362040  1
  O  O71  1  0.003091  0.873937  0.648370  1
  O  O72  1  0.163578  0.948392  0.748190  1
  O  O73  1  0.334009  0.948316  0.918037  1
  O  O74  1  0.186106  0.946764  0.384472  1
  O  O75  1  0.093756  0.944049  0.536521  1
  Si  Si76  1  0.081258  0.940242  0.406759  1
  Si  Si77  1  0.414183  0.938264  0.649342  1
  Si  Si78  1  0.442201  0.941370  0.266683  1
  Si  Si79  1  0.275146  0.970919  0.795980  1
  Si  Si80  1  0.296738  0.970377  0.405564  1
  Si  Si81  1  0.433353  0.940399  0.015602  1
  Si  Si82  1  0.064508  0.940487  0.650219  1
  O  O83  1  0.499171  0.874484  0.309466  1
  O  O84  1  0.010128  0.999906  0.354825  1
  O  O85  1  0.523821  0.127678  0.319271  1
  O  O86  1  0.664602  0.056130  0.283624  1
  O  O87  1  0.514032  0.000409  0.316003  1
  O  O88  1  0.638838  0.056806  0.478824  1
  O  O89  1  0.650587  0.049141  0.686630  1
  O  O90  1  0.581356  0.054135  0.864288  1
  O  O91  1  0.501171  0.125115  0.691269  1
  O  O92  1  0.979247  0.125410  0.638405  1
  O  O93  1  0.997436  0.125833  0.351945  1
  O  O94  1  0.836550  0.051757  0.252081  1
  O  O95  1  0.666423  0.051412  0.081919  1
  O  O96  1  0.813710  0.053249  0.615461  1
  O  O97  1  0.906351  0.055973  0.463779  1
  Si  Si98  1  0.918725  0.059644  0.593513  1
  Si  Si99  1  0.585653  0.061352  0.350455  1
  Si  Si100  1  0.557778  0.058008  0.733548  1
  Si  Si101  1  0.725084  0.029017  0.204180  1
  Si  Si102  1  0.703149  0.029413  0.594327  1
  Si  Si103  1  0.566808  0.059834  0.984747  1
  Si  Si104  1  0.935622  0.059475  0.350103  1
  O  O105  1  0.512861  0.127007  0.999796  1
  O  O106  1  0.523955  0.371995  0.319652  1
  O  O107  1  0.665957  0.655091  0.287046  1
  O  O108  1  0.813048  0.650241  0.615341  1
  O  O109  1  0.701207  0.548250  0.583326  1
  O  O110  1  0.655138  0.648937  0.688528  1
  O  O111  1  0.834548  0.650366  0.252963  1
  O  O112  1  0.668766  0.652423  0.084929  1
  O  O113  1  0.720182  0.548891  0.210583  1
  Si  Si114  1  0.935720  0.440505  0.350011  1
  O  O115  1  0.664782  0.443684  0.283754  1
  O  O116  1  0.514439  0.499223  0.316772  1
  O  O117  1  0.639420  0.442813  0.479083  1
  O  O118  1  0.650772  0.450337  0.686569  1
  O  O119  1  0.582379  0.444264  0.864333  1
  O  O120  1  0.511756  0.374178  0.000967  1
  O  O121  1  0.979141  0.374337  0.638174  1
  O  O122  1  0.997107  0.373941  0.351873  1
  O  O123  1  0.836660  0.448400  0.252025  1
  O  O124  1  0.666245  0.448304  0.082136  1
  O  O125  1  0.814089  0.446777  0.615705  1
  O  O126  1  0.501128  0.501068  0.998179  1
  O  O127  1  0.990094  0.499908  0.645431  1
  O  O128  1  0.906468  0.444081  0.463705  1
  Si  Si129  1  0.918953  0.440255  0.593464  1
  Si  Si130  1  0.703188  0.626020  0.594129  1
  Si  Si131  1  0.723741  0.626853  0.206041  1
  Si  Si132  1  0.586012  0.438244  0.350796  1
  Si  Si133  1  0.558013  0.441358  0.733477  1
  Si  Si134  1  0.725086  0.470904  0.204204  1
  Si  Si135  1  0.703449  0.470378  0.594570  1
  Si  Si136  1  0.566903  0.440389  0.984566  1
  O  O137  1  0.501015  0.374487  0.690671  1
  O  O138  1  0.640436  0.655832  0.480231  1
  O  O139  1  0.591034  0.661435  0.868053  1
  O  O140  1  0.899453  0.665667  0.462220  1
  Si  Si141  1  0.912795  0.826550  0.592039  1
  O  O142  1  0.641075  0.843791  0.479912  1
  O  O143  1  0.567455  0.749809  0.341821  1
  O  O144  1  0.665705  0.844563  0.286353  1
  O  O145  1  0.813364  0.849620  0.615471  1
  O  O146  1  0.701325  0.951548  0.582948  1
  O  O147  1  0.655077  0.850819  0.687878  1
  O  O148  1  0.834663  0.849375  0.253063  1
  O  O149  1  0.669271  0.848078  0.084513  1
  O  O150  1  0.720617  0.951031  0.211099  1
  Si  Si151  1  0.590722  0.827066  0.354230  1
  O  O152  1  0.549736  0.749883  0.714734  1
  Si  Si153  1  0.912526  0.673183  0.591897  1
  O  O154  1  0.591562  0.838702  0.867471  1
  O  O155  1  0.554718  0.750392  0.998407  1
  Si  Si156  1  0.928749  0.826539  0.348796  1
  O  O157  1  0.899574  0.834013  0.462314  1
  O  O158  1  0.950685  0.749835  0.337362  1
  O  O159  1  0.931487  0.749850  0.619506  1
  Si  Si160  1  0.590547  0.672532  0.354400  1
  Si  Si161  1  0.928677  0.673134  0.348735  1
  Si  Si162  1  0.703429  0.873784  0.593812  1
  Si  Si163  1  0.723986  0.873086  0.206057  1
  Si  Si164  1  0.568590  0.672714  0.737800  1
  Si  Si165  1  0.568605  0.827098  0.737247  1
  Si  Si166  1  0.574793  0.673133  0.987328  1
  Si  Si167  1  0.575308  0.827528  0.986816  1
  O  O168  1  0.989640  0.999857  0.645369  1
