# generated using pymatgen
data_SiO2
_symmetry_space_group_name_H-M   'P 1'
_cell_length_a   24.22409759
_cell_length_b   11.47834918
_cell_length_c   14.36840839
_cell_angle_alpha   90.00000000
_cell_angle_beta   90.00000000
_cell_angle_gamma   90.00000000
_symmetry_Int_Tables_number   1
_chemical_formula_structural   SiO2
_chemical_formula_sum   'Si66 O132'
_cell_volume   3995.17403992
_cell_formula_units_Z   66
loop_
 _symmetry_equiv_pos_site_id
 _symmetry_equiv_pos_as_xyz
  1  'x, y, z'
loop_
 _atom_site_type_symbol
 _atom_site_label
 _atom_site_symmetry_multiplicity
 _atom_site_fract_x
 _atom_site_fract_y
 _atom_site_fract_z
 _atom_site_occupancy
  Si  Si1  1  0.070106  0.530625  0.093016  1
  Si  Si2  1  0.070104  0.969115  0.093019  1
  Si  Si3  1  0.144483  0.384358  0.219808  1
  Si  Si4  1  0.144484  0.115387  0.219803  1
  Si  Si5  1  0.313900  0.505377  0.397001  1
  Si  Si6  1  0.186150  0.505382  0.396996  1
  Si  Si7  1  0.313903  0.994366  0.397005  1
  Si  Si8  1  0.186151  0.994357  0.396998  1
  Si  Si9  1  0.313532  0.749868  0.309238  1
  Si  Si10  1  0.186522  0.749870  0.309241  1
  Si  Si11  1  0.143688  0.749873  0.105101  1
  Si  Si12  1  0.250026  0.383505  0.098840  1
  Si  Si13  1  0.250025  0.116237  0.098842  1
  O  O14  1  0.250027  0.014439  0.385921  1
  O  O15  1  0.198581  0.749874  0.048569  1
  O  O16  1  0.301473  0.749870  0.048570  1
  O  O17  1  0.302779  0.408457  0.158828  1
  O  O18  1  0.197274  0.408457  0.158827  1
  O  O19  1  0.302777  0.091284  0.158827  1
  O  O20  1  0.197275  0.091286  0.158827  1
  O  O21  1  0.250027  0.447495  0.003580  1
  O  O22  1  0.250025  0.052249  0.003582  1
  O  O23  1  0.250026  0.249870  0.078535  1
  O  O24  1  0.324582  0.863282  0.369011  1
  O  O25  1  0.175472  0.863280  0.369009  1
  O  O26  1  0.324582  0.636451  0.369012  1
  O  O27  1  0.175471  0.636455  0.369014  1
  O  O28  1  0.155857  0.749872  0.212594  1
  O  O29  1  0.250025  0.749873  0.287299  1
  O  O30  1  0.095916  0.454663  0.173192  1
  O  O31  1  0.095914  0.045078  0.173190  1
  O  O32  1  0.009255  0.571792  0.112526  1
  O  O33  1  0.009255  0.927958  0.112526  1
  O  O34  1  0.069527  0.453665  0.002908  1
  O  O35  1  0.069528  0.046074  0.002911  1
  O  O36  1  0.108432  0.639721  0.080397  1
  O  O37  1  0.108431  0.860024  0.080399  1
  O  O38  1  0.157402  0.427393  0.321198  1
  O  O39  1  0.157400  0.072353  0.321198  1
  O  O40  1  0.133596  0.249874  0.218706  1
  O  O41  1  0.250026  0.485303  0.385928  1
  O  O42  1  0.172099  0.462823  0.499658  1
  O  O43  1  0.172091  0.036921  0.499669  1
  O  O44  1  0.327960  0.036923  0.499674  1
  O  O45  1  0.327958  0.462826  0.499667  1
  Si  Si46  1  0.050179  0.384122  0.914874  1
  Si  Si47  1  0.050178  0.115628  0.914879  1
  Si  Si48  1  0.154709  0.383907  0.794412  1
  Si  Si49  1  0.154706  0.115822  0.794406  1
  Si  Si50  1  0.313845  0.383867  0.587549  1
  Si  Si51  1  0.186206  0.383872  0.587544  1
  Si  Si52  1  0.313846  0.115877  0.587550  1
  Si  Si53  1  0.186209  0.115859  0.587553  1
  Si  Si54  1  0.250021  0.500983  0.904152  1
  Si  Si55  1  0.250031  0.998764  0.904153  1
  O  O56  1  0.250027  0.636178  0.922265  1
  O  O57  1  0.250025  0.863562  0.922265  1
  O  O58  1  0.250027  0.101810  0.603726  1
  O  O59  1  0.197743  0.457504  0.850921  1
  O  O60  1  0.302309  0.457507  0.850925  1
  O  O61  1  0.197744  0.042235  0.850925  1
  O  O62  1  0.302312  0.042242  0.850921  1
  O  O63  1  0.095039  0.401007  0.836440  1
  O  O64  1  0.095041  0.098735  0.836437  1
  O  O65  1  0.047431  0.249878  0.937151  1
  O  O66  1  0.158811  0.408538  0.685907  1
  O  O67  1  0.158818  0.091224  0.685893  1
  Si  Si68  1  0.250026  0.749868  0.983331  1
  O  O69  1  0.168067  0.249876  0.806581  1
  O  O70  1  0.331986  0.249882  0.806577  1
  O  O71  1  0.322110  0.249871  0.565030  1
  O  O72  1  0.177942  0.249864  0.565024  1
  O  O73  1  0.250031  0.397937  0.603719  1
  Si  Si74  1  0.429948  0.530631  0.093014  1
  Si  Si75  1  0.429947  0.969116  0.093015  1
  Si  Si76  1  0.355571  0.384352  0.219807  1
  Si  Si77  1  0.355570  0.115387  0.219802  1
  Si  Si78  1  0.550181  0.615621  0.085190  1
  Si  Si79  1  0.550178  0.884119  0.085183  1
  Si  Si80  1  0.654708  0.615842  0.205658  1
  Si  Si81  1  0.654705  0.883921  0.205646  1
  Si  Si82  1  0.356366  0.749870  0.105103  1
  O  O83  1  0.344199  0.749875  0.212590  1
  O  O84  1  0.404139  0.454661  0.173187  1
  O  O85  1  0.404139  0.045077  0.173192  1
  O  O86  1  0.490798  0.571790  0.112523  1
  O  O87  1  0.490798  0.927958  0.112527  1
  O  O88  1  0.430525  0.453670  0.002910  1
  O  O89  1  0.430527  0.046078  0.002908  1
  O  O90  1  0.391622  0.639721  0.080399  1
  O  O91  1  0.391620  0.860020  0.080398  1
  O  O92  1  0.342651  0.427396  0.321199  1
  O  O93  1  0.342653  0.072352  0.321195  1
  O  O94  1  0.366456  0.249868  0.218703  1
  O  O95  1  0.595045  0.598740  0.163622  1
  O  O96  1  0.595040  0.901008  0.163625  1
  O  O97  1  0.547430  0.749867  0.062910  1
  O  O98  1  0.658816  0.591215  0.314159  1
  O  O99  1  0.658822  0.908501  0.314157  1
  Si  Si100  1  0.570105  0.469116  0.907045  1
  Si  Si101  1  0.570105  0.030631  0.907043  1
  Si  Si102  1  0.644483  0.615391  0.780258  1
  Si  Si103  1  0.644483  0.884355  0.780259  1
  Si  Si104  1  0.449875  0.384119  0.914877  1
  Si  Si105  1  0.449872  0.115626  0.914875  1
  Si  Si106  1  0.345345  0.383916  0.794402  1
  Si  Si107  1  0.345346  0.115831  0.794401  1
  Si  Si108  1  0.643687  0.249877  0.894956  1
  O  O109  1  0.655857  0.249873  0.787468  1
  O  O110  1  0.595914  0.545083  0.826870  1
  O  O111  1  0.595917  0.954666  0.826868  1
  O  O112  1  0.509256  0.427960  0.887532  1
  O  O113  1  0.509255  0.071790  0.887538  1
  O  O114  1  0.569526  0.546079  0.997150  1
  O  O115  1  0.569528  0.953671  0.997151  1
  O  O116  1  0.608430  0.360024  0.919661  1
  O  O117  1  0.608434  0.139724  0.919664  1
  O  O118  1  0.657401  0.572356  0.678864  1
  O  O119  1  0.657400  0.927392  0.678867  1
  O  O120  1  0.633597  0.749873  0.781356  1
  O  O121  1  0.405013  0.401008  0.836439  1
  O  O122  1  0.405009  0.098739  0.836438  1
  O  O123  1  0.452623  0.249873  0.937150  1
  O  O124  1  0.341235  0.408513  0.685898  1
  O  O125  1  0.341235  0.091209  0.685895  1
  Si  Si126  1  0.949872  0.615625  0.085186  1
  Si  Si127  1  0.949875  0.884120  0.085183  1
  Si  Si128  1  0.845347  0.615830  0.205658  1
  Si  Si129  1  0.845346  0.883915  0.205655  1
  Si  Si130  1  0.686208  0.615876  0.412508  1
  Si  Si131  1  0.813846  0.615875  0.412511  1
  Si  Si132  1  0.686208  0.883878  0.412505  1
  Si  Si133  1  0.813844  0.883877  0.412515  1
  Si  Si134  1  0.750026  0.498768  0.095913  1
  Si  Si135  1  0.750026  0.000986  0.095907  1
  O  O136  1  0.750027  0.363567  0.077796  1
  O  O137  1  0.750025  0.136183  0.077796  1
  O  O138  1  0.802311  0.542241  0.149139  1
  O  O139  1  0.697742  0.542237  0.149141  1
  O  O140  1  0.802309  0.957507  0.149141  1
  O  O141  1  0.697744  0.957506  0.149138  1
  O  O142  1  0.905009  0.598742  0.163625  1
  O  O143  1  0.905013  0.901012  0.163620  1
  O  O144  1  0.952623  0.749874  0.062910  1
  O  O145  1  0.841237  0.591214  0.314163  1
  O  O146  1  0.841233  0.908523  0.314160  1
  Si  Si147  1  0.750027  0.249872  0.016729  1
  O  O148  1  0.831985  0.749883  0.193479  1
  O  O149  1  0.668064  0.749880  0.193494  1
  O  O150  1  0.677942  0.749877  0.435031  1
  O  O151  1  0.822109  0.749875  0.435031  1
  O  O152  1  0.750027  0.601816  0.396336  1
  O  O153  1  0.750026  0.897937  0.396335  1
  Si  Si154  1  0.929949  0.469114  0.907045  1
  Si  Si155  1  0.929946  0.030631  0.907044  1
  Si  Si156  1  0.855572  0.615392  0.780260  1
  Si  Si157  1  0.855571  0.884358  0.780257  1
  Si  Si158  1  0.686150  0.494366  0.603057  1
  Si  Si159  1  0.813902  0.494366  0.603058  1
  Si  Si160  1  0.686151  0.005386  0.603062  1
  Si  Si161  1  0.813904  0.005383  0.603060  1
  Si  Si162  1  0.686522  0.249878  0.690826  1
  Si  Si163  1  0.813530  0.249873  0.690827  1
  Si  Si164  1  0.856366  0.249875  0.894958  1
  Si  Si165  1  0.750027  0.616239  0.901223  1
  Si  Si166  1  0.750027  0.883509  0.901218  1
  O  O167  1  0.990797  0.071786  0.887534  1
  O  O168  1  0.801473  0.249872  0.951491  1
  O  O169  1  0.698580  0.249873  0.951491  1
  O  O170  1  0.697274  0.591290  0.841232  1
  O  O171  1  0.802778  0.591289  0.841231  1
  O  O172  1  0.697275  0.908463  0.841234  1
  O  O173  1  0.802778  0.908461  0.841233  1
  O  O174  1  0.750027  0.552251  0.996481  1
  O  O175  1  0.750026  0.947496  0.996478  1
  O  O176  1  0.750026  0.749876  0.921525  1
  O  O177  1  0.675471  0.136465  0.631049  1
  O  O178  1  0.824582  0.136463  0.631047  1
  O  O179  1  0.675471  0.363288  0.631050  1
  O  O180  1  0.824582  0.363286  0.631048  1
  O  O181  1  0.844196  0.249875  0.787468  1
  O  O182  1  0.750026  0.249875  0.712761  1
  O  O183  1  0.904139  0.545081  0.826870  1
  O  O184  1  0.904138  0.954667  0.826869  1
  O  O185  1  0.990800  0.427954  0.887535  1
  O  O186  1  0.930526  0.546079  0.997151  1
  O  O187  1  0.930525  0.953670  0.997150  1
  O  O188  1  0.891620  0.360024  0.919662  1
  O  O189  1  0.891622  0.139723  0.919662  1
  O  O190  1  0.842652  0.572357  0.678863  1
  O  O191  1  0.842652  0.927392  0.678866  1
  O  O192  1  0.866456  0.749876  0.781354  1
  O  O193  1  0.750026  0.514443  0.614139  1
  O  O194  1  0.750027  0.985308  0.614139  1
  O  O195  1  0.827961  0.536928  0.500390  1
  O  O196  1  0.827960  0.962828  0.500390  1
  O  O197  1  0.672092  0.962827  0.500391  1
  O  O198  1  0.672094  0.536928  0.500392  1
