# generated using pymatgen
data_SiO2
_symmetry_space_group_name_H-M   'P 1'
_cell_length_a   13.73003562
_cell_length_b   17.33827655
_cell_length_c   17.73015605
_cell_angle_alpha   90.00000000
_cell_angle_beta   90.00000000
_cell_angle_gamma   90.00000000
_symmetry_Int_Tables_number   1
_chemical_formula_structural   SiO2
_chemical_formula_sum   'Si72 O144'
_cell_volume   4220.7550405
_cell_formula_units_Z   72
loop_
 _symmetry_equiv_pos_site_id
 _symmetry_equiv_pos_as_xyz
  1  'x, y, z'
loop_
 _atom_site_type_symbol
 _atom_site_label
 _atom_site_symmetry_multiplicity
 _atom_site_fract_x
 _atom_site_fract_y
 _atom_site_fract_z
 _atom_site_occupancy
  O  O1  1  0.000097  0.141976  0.183264  1
  O  O2  1  0.500125  0.357878  0.183282  1
  O  O3  1  0.000136  0.357907  0.316796  1
  O  O4  1  0.500106  0.141976  0.316829  1
  O  O5  1  0.124492  0.071924  0.262509  1
  O  O6  1  0.875674  0.071945  0.262478  1
  O  O7  1  0.624533  0.427927  0.262494  1
  O  O8  1  0.375716  0.427923  0.262536  1
  O  O9  1  0.875695  0.427925  0.237582  1
  O  O10  1  0.124541  0.427952  0.237545  1
  O  O11  1  0.375670  0.071957  0.237618  1
  O  O12  1  0.624511  0.071945  0.237565  1
  O  O13  1  0.180548  0.196423  0.202089  1
  O  O14  1  0.819678  0.196430  0.202094  1
  O  O15  1  0.680565  0.303436  0.202105  1
  O  O16  1  0.319714  0.303403  0.202105  1
  O  O17  1  0.819709  0.303435  0.298016  1
  O  O18  1  0.180560  0.303442  0.297987  1
  O  O19  1  0.319657  0.196411  0.298039  1
  O  O20  1  0.680557  0.196432  0.298023  1
  O  O21  1  0.149026  0.071827  0.123183  1
  O  O22  1  0.851158  0.071832  0.123173  1
  O  O23  1  0.649044  0.428031  0.123193  1
  O  O24  1  0.351164  0.428013  0.123208  1
  O  O25  1  0.809419  0.499936  0.120089  1
  O  O26  1  0.190786  0.499950  0.120084  1
  Si  Si27  1  0.750131  0.249934  0.250067  1
  Si  Si28  1  0.112556  0.123974  0.190343  1
  Si  Si29  1  0.887637  0.123961  0.190346  1
  Si  Si30  1  0.612583  0.375888  0.190357  1
  Si  Si31  1  0.387664  0.375878  0.190366  1
  Si  Si32  1  0.887674  0.375904  0.309735  1
  Si  Si33  1  0.112596  0.375909  0.309711  1
  Si  Si34  1  0.387645  0.123954  0.309764  1
  Si  Si35  1  0.612565  0.123977  0.309744  1
  Si  Si36  1  0.297807  0.499904  0.087825  1
  Si  Si37  1  0.250122  0.249914  0.250054  1
  Si  Si38  1  0.388824  0.499935  0.315580  1
  O  O39  1  0.000142  0.499932  0.160238  1
  Si  Si40  1  0.702405  0.499924  0.087817  1
  Si  Si41  1  0.611436  0.499949  0.315565  1
  Si  Si42  1  0.888783  0.499933  0.184495  1
  O  O43  1  0.696288  0.499907  0.000036  1
  O  O44  1  0.303862  0.499887  0.000043  1
  Si  Si45  1  0.111397  0.499954  0.184492  1
  O  O46  1  0.648927  0.071806  0.623157  1
  O  O47  1  0.351041  0.071790  0.623164  1
  O  O48  1  0.148941  0.428022  0.623191  1
  O  O49  1  0.851091  0.428033  0.623181  1
  O  O50  1  0.851203  0.428051  0.376896  1
  O  O51  1  0.149069  0.428057  0.376866  1
  O  O52  1  0.351181  0.071790  0.376917  1
  O  O53  1  0.649031  0.071805  0.376886  1
  O  O54  1  0.196276  0.499906  0.500036  1
  Si  Si55  1  0.202422  0.499943  0.412256  1
  Si  Si56  1  0.797800  0.499933  0.412257  1
  Si  Si57  1  0.797699  0.499915  0.587815  1
  Si  Si58  1  0.202333  0.499898  0.587812  1
  O  O59  1  0.500083  0.499951  0.339824  1
  O  O60  1  0.690685  0.499879  0.620093  1
  O  O61  1  0.500050  0.499847  0.660259  1
  O  O62  1  0.690796  0.499935  0.379971  1
  O  O63  1  0.309349  0.499872  0.620093  1
  O  O64  1  0.309449  0.499948  0.380003  1
  O  O65  1  0.803819  0.499928  0.500038  1
  O  O66  1  0.499983  0.141955  0.683239  1
  O  O67  1  0.000004  0.357878  0.683273  1
  O  O68  1  0.500001  0.357825  0.816830  1
  O  O69  1  0.999986  0.141915  0.816761  1
  O  O70  1  0.624405  0.071918  0.762485  1
  O  O71  1  0.375573  0.071906  0.762481  1
  O  O72  1  0.124411  0.427920  0.762525  1
  O  O73  1  0.875591  0.427914  0.762486  1
  O  O74  1  0.375577  0.427838  0.737603  1
  O  O75  1  0.624420  0.427856  0.737593  1
  O  O76  1  0.875589  0.071862  0.737514  1
  O  O77  1  0.124392  0.071864  0.737526  1
  O  O78  1  0.680418  0.196419  0.702047  1
  O  O79  1  0.319543  0.196404  0.702057  1
  O  O80  1  0.180424  0.303415  0.702089  1
  O  O81  1  0.819563  0.303425  0.702068  1
  O  O82  1  0.319554  0.303373  0.798011  1
  O  O83  1  0.680447  0.303381  0.798009  1
  O  O84  1  0.819569  0.196381  0.797944  1
  O  O85  1  0.180410  0.196374  0.797969  1
  O  O86  1  0.351063  0.427986  0.876898  1
  O  O87  1  0.648940  0.427994  0.876910  1
  O  O88  1  0.851057  0.071775  0.876836  1
  O  O89  1  0.148911  0.071768  0.876857  1
  Si  Si90  1  0.249980  0.249893  0.750033  1
  Si  Si91  1  0.750003  0.249905  0.750011  1
  O  O92  1  0.809330  0.499911  0.879973  1
  O  O93  1  0.000038  0.499929  0.839831  1
  Si  Si94  1  0.388701  0.499858  0.684497  1
  Si  Si95  1  0.297705  0.499883  0.912268  1
  Si  Si96  1  0.612446  0.123957  0.690312  1
  Si  Si97  1  0.387522  0.123949  0.690311  1
  Si  Si98  1  0.112462  0.375881  0.690354  1
  Si  Si99  1  0.887544  0.375884  0.690346  1
  Si  Si100  1  0.387539  0.375833  0.809743  1
  Si  Si101  1  0.612460  0.375839  0.809754  1
  Si  Si102  1  0.887528  0.123916  0.809677  1
  Si  Si103  1  0.112445  0.123909  0.809692  1
  O  O104  1  0.190678  0.499900  0.880011  1
  Si  Si105  1  0.888695  0.499928  0.815578  1
  Si  Si106  1  0.111302  0.499913  0.815594  1
  Si  Si107  1  0.611307  0.499863  0.684509  1
  Si  Si108  1  0.702320  0.499892  0.912262  1
  O  O109  1  0.500094  0.641986  0.183267  1
  O  O110  1  0.000093  0.857918  0.183211  1
  O  O111  1  0.500096  0.857873  0.316770  1
  O  O112  1  0.000095  0.641982  0.316820  1
  O  O113  1  0.624533  0.571960  0.262478  1
  O  O114  1  0.375688  0.571924  0.262508  1
  O  O115  1  0.124498  0.927918  0.262476  1
  O  O116  1  0.875661  0.927909  0.262453  1
  O  O117  1  0.375671  0.927914  0.237573  1
  O  O118  1  0.624499  0.927931  0.237542  1
  O  O119  1  0.875686  0.571952  0.237587  1
  O  O120  1  0.124494  0.571949  0.237558  1
  O  O121  1  0.680546  0.696431  0.202038  1
  O  O122  1  0.319633  0.696408  0.202051  1
  O  O123  1  0.180516  0.803430  0.202046  1
  O  O124  1  0.819686  0.803430  0.202038  1
  O  O125  1  0.319663  0.803422  0.297956  1
  O  O126  1  0.680541  0.803431  0.297951  1
  O  O127  1  0.819665  0.696433  0.297977  1
  O  O128  1  0.180519  0.696445  0.297984  1
  O  O129  1  0.649011  0.571812  0.123171  1
  O  O130  1  0.351202  0.571790  0.123180  1
  O  O131  1  0.149056  0.928053  0.123164  1
  O  O132  1  0.851129  0.928054  0.123150  1
  O  O133  1  0.309429  0.999966  0.120085  1
  O  O134  1  0.690754  0.999965  0.120070  1
  Si  Si135  1  0.250085  0.749930  0.250004  1
  O  O136  1  0.500132  0.999963  0.160246  1
  Si  Si137  1  0.612556  0.623976  0.190324  1
  Si  Si138  1  0.387637  0.623960  0.190336  1
  Si  Si139  1  0.112553  0.875905  0.190316  1
  Si  Si140  1  0.887630  0.875912  0.190306  1
  Si  Si141  1  0.387635  0.875884  0.309697  1
  Si  Si142  1  0.612552  0.875888  0.309685  1
  Si  Si143  1  0.887637  0.623972  0.309728  1
  Si  Si144  1  0.112555  0.623981  0.309736  1
  Si  Si145  1  0.202414  0.999951  0.087802  1
  Si  Si146  1  0.750116  0.749932  0.249998  1
  Si  Si147  1  0.797767  0.999955  0.087794  1
  O  O148  1  0.196289  0.999951  0.000027  1
  Si  Si149  1  0.888772  0.999914  0.315576  1
  Si  Si150  1  0.611381  0.999963  0.184491  1
  Si  Si151  1  0.111377  0.999924  0.315562  1
  Si  Si152  1  0.388775  0.999954  0.184489  1
  O  O153  1  0.803816  0.999954  0.000011  1
  O  O154  1  0.148970  0.571792  0.623183  1
  O  O155  1  0.851066  0.571809  0.623181  1
  O  O156  1  0.648887  0.928026  0.623171  1
  O  O157  1  0.351103  0.928007  0.623178  1
  O  O158  1  0.351156  0.928010  0.376873  1
  O  O159  1  0.649018  0.928027  0.376855  1
  O  O160  1  0.851167  0.571830  0.376895  1
  O  O161  1  0.149049  0.571833  0.376888  1
  O  O162  1  0.000130  0.999906  0.339816  1
  O  O163  1  0.303809  0.999867  0.500031  1
  O  O164  1  0.809415  0.999907  0.379974  1
  O  O165  1  0.190678  0.999841  0.620074  1
  Si  Si166  1  0.702391  0.999905  0.412245  1
  O  O167  1  0.999995  0.999843  0.660220  1
  Si  Si168  1  0.297777  0.999894  0.412253  1
  O  O169  1  0.696244  0.999888  0.500016  1
  Si  Si170  1  0.297697  0.999879  0.587809  1
  O  O171  1  0.809303  0.999863  0.620070  1
  Si  Si172  1  0.702288  0.999903  0.587801  1
  O  O173  1  0.190767  0.999912  0.379969  1
  O  O174  1  0.000023  0.641947  0.683251  1
  O  O175  1  0.500006  0.857834  0.683281  1
  O  O176  1  0.999995  0.857838  0.816822  1
  O  O177  1  0.500001  0.641915  0.816806  1
  O  O178  1  0.124426  0.571919  0.762508  1
  O  O179  1  0.875586  0.571953  0.762479  1
  O  O180  1  0.624405  0.927919  0.762500  1
  O  O181  1  0.375592  0.927904  0.762498  1
  O  O182  1  0.875562  0.927846  0.737577  1
  O  O183  1  0.124412  0.927855  0.737586  1
  O  O184  1  0.375595  0.571881  0.737580  1
  O  O185  1  0.624410  0.571863  0.737567  1
  O  O186  1  0.180448  0.696400  0.702078  1
  O  O187  1  0.819576  0.696416  0.702063  1
  O  O188  1  0.680449  0.803414  0.702068  1
  O  O189  1  0.319562  0.803398  0.702080  1
  O  O190  1  0.819554  0.803381  0.798007  1
  O  O191  1  0.180439  0.803386  0.798015  1
  O  O192  1  0.319581  0.696380  0.797991  1
  O  O193  1  0.680418  0.696383  0.797973  1
  O  O194  1  0.851050  0.928000  0.876884  1
  O  O195  1  0.148935  0.927997  0.876903  1
  O  O196  1  0.351072  0.571768  0.876884  1
  O  O197  1  0.648937  0.571777  0.876889  1
  Si  Si198  1  0.749990  0.749894  0.750029  1
  Si  Si199  1  0.250012  0.749893  0.750047  1
  Si  Si200  1  0.111296  0.999849  0.684481  1
  Si  Si201  1  0.112478  0.623932  0.690345  1
  Si  Si202  1  0.887557  0.623955  0.690335  1
  Si  Si203  1  0.612461  0.875865  0.690335  1
  Si  Si204  1  0.387547  0.875849  0.690337  1
  Si  Si205  1  0.887534  0.875846  0.809731  1
  Si  Si206  1  0.112455  0.875845  0.809745  1
  Si  Si207  1  0.387541  0.623911  0.809721  1
  Si  Si208  1  0.612459  0.623918  0.809725  1
  Si  Si209  1  0.202314  0.999902  0.912244  1
  Si  Si210  1  0.888683  0.999852  0.684470  1
  Si  Si211  1  0.388682  0.999913  0.815544  1
  Si  Si212  1  0.611303  0.999923  0.815548  1
  O  O213  1  0.690663  0.999912  0.879972  1
  Si  Si214  1  0.797684  0.999903  0.912236  1
  O  O215  1  0.499993  0.999925  0.839791  1
  O  O216  1  0.309320  0.999909  0.879958  1
