# generated using pymatgen
data_SiO2
_symmetry_space_group_name_H-M   'P 1'
_cell_length_a   18.37561701
_cell_length_b   18.36622823
_cell_length_c   9.24612979
_cell_angle_alpha   90.00000000
_cell_angle_beta   90.00000000
_cell_angle_gamma   90.00000000
_symmetry_Int_Tables_number   1
_chemical_formula_structural   SiO2
_chemical_formula_sum   'Si48 O96'
_cell_volume   3120.48351783
_cell_formula_units_Z   48
loop_
 _symmetry_equiv_pos_site_id
 _symmetry_equiv_pos_as_xyz
  1  'x, y, z'
loop_
 _atom_site_type_symbol
 _atom_site_label
 _atom_site_symmetry_multiplicity
 _atom_site_fract_x
 _atom_site_fract_y
 _atom_site_fract_z
 _atom_site_occupancy
  O  O1  1  0.130234  0.630116  0.000087  1
  O  O2  1  0.869877  0.130116  0.000114  1
  O  O3  1  0.369878  0.869744  0.000118  1
  O  O4  1  0.630234  0.369745  0.000108  1
  O  O5  1  0.369861  0.630115  0.000098  1
  O  O6  1  0.630250  0.130115  0.000127  1
  O  O7  1  0.130249  0.869746  0.000104  1
  O  O8  1  0.869863  0.369745  0.000095  1
  O  O9  1  0.079638  0.749930  0.112223  1
  O  O10  1  0.750066  0.079498  0.112235  1
  O  O11  1  0.420473  0.749928  0.112238  1
  O  O12  1  0.750048  0.420362  0.112212  1
  O  O13  1  0.920474  0.249931  0.887974  1
  O  O14  1  0.250064  0.920362  0.888001  1
  O  O15  1  0.579639  0.249928  0.887990  1
  O  O16  1  0.250049  0.579498  0.887978  1
  O  O17  1  0.880923  0.880780  0.851306  1
  O  O18  1  0.619206  0.880773  0.851327  1
  O  O19  1  0.619189  0.619079  0.851300  1
  O  O20  1  0.880905  0.619086  0.851294  1
  O  O21  1  0.119206  0.119087  0.148905  1
  O  O22  1  0.380923  0.119079  0.148926  1
  O  O23  1  0.380906  0.380773  0.148899  1
  O  O24  1  0.119189  0.380781  0.148893  1
  O  O25  1  0.996815  0.842886  0.989113  1
  O  O26  1  0.657119  0.996666  0.989129  1
  O  O27  1  0.503295  0.656972  0.989112  1
  O  O28  1  0.842993  0.503194  0.989095  1
  O  O29  1  0.503310  0.842880  0.989135  1
  O  O30  1  0.843010  0.996670  0.989114  1
  O  O31  1  0.996802  0.656979  0.989105  1
  O  O32  1  0.657103  0.503191  0.989103  1
  O  O33  1  0.003310  0.156979  0.011094  1
  O  O34  1  0.343010  0.003191  0.011120  1
  O  O35  1  0.496801  0.342879  0.011093  1
  O  O36  1  0.157103  0.496669  0.011088  1
  O  O37  1  0.496817  0.156972  0.011115  1
  O  O38  1  0.157120  0.003195  0.011106  1
  O  O39  1  0.003296  0.342886  0.011083  1
  O  O40  1  0.342994  0.496666  0.011095  1
  O  O41  1  0.941126  0.749934  0.815797  1
  O  O42  1  0.750063  0.940995  0.815828  1
  O  O43  1  0.558985  0.749927  0.815813  1
  O  O44  1  0.750047  0.558865  0.815803  1
  O  O45  1  0.058986  0.249934  0.184399  1
  O  O46  1  0.250064  0.058865  0.184409  1
  O  O47  1  0.441127  0.249928  0.184416  1
  O  O48  1  0.250048  0.440995  0.184385  1
  O  O49  1  0.927606  0.427493  0.500078  1
  O  O50  1  0.072507  0.927493  0.500121  1
  O  O51  1  0.572506  0.072366  0.500109  1
  O  O52  1  0.427606  0.572366  0.500115  1
  O  O53  1  0.572487  0.427488  0.500089  1
  O  O54  1  0.427626  0.927489  0.500136  1
  O  O55  1  0.927626  0.072371  0.500095  1
  O  O56  1  0.072486  0.572371  0.500106  1
  O  O57  1  0.996105  0.369904  0.275192  1
  O  O58  1  0.130091  0.995995  0.275215  1
  O  O59  1  0.504008  0.129957  0.275224  1
  O  O60  1  0.370020  0.503864  0.275207  1
  O  O61  1  0.503991  0.369902  0.275198  1
  O  O62  1  0.370037  0.995990  0.275232  1
  O  O63  1  0.996122  0.129960  0.275202  1
  O  O64  1  0.130075  0.503870  0.275201  1
  O  O65  1  0.003990  0.629959  0.724997  1
  O  O66  1  0.870036  0.003870  0.724999  1
  O  O67  1  0.496122  0.869901  0.725028  1
  O  O68  1  0.630074  0.495989  0.724992  1
  O  O69  1  0.496105  0.629958  0.725003  1
  O  O70  1  0.630091  0.003864  0.725018  1
  O  O71  1  0.004008  0.869904  0.725007  1
  O  O72  1  0.870020  0.495995  0.724985  1
  O  O73  1  0.878818  0.442022  0.232748  1
  O  O74  1  0.057980  0.878696  0.232773  1
  O  O75  1  0.621295  0.057839  0.232782  1
  O  O76  1  0.442130  0.621161  0.232769  1
  O  O77  1  0.621278  0.442021  0.232760  1
  O  O78  1  0.442148  0.878691  0.232789  1
  O  O79  1  0.878836  0.057841  0.232766  1
  O  O80  1  0.057964  0.621167  0.232758  1
  O  O81  1  0.121277  0.557840  0.767433  1
  O  O82  1  0.942147  0.121166  0.767441  1
  O  O83  1  0.378835  0.942020  0.767465  1
  O  O84  1  0.557964  0.378691  0.767436  1
  O  O85  1  0.378818  0.557839  0.767444  1
  O  O86  1  0.557981  0.121162  0.767459  1
  O  O87  1  0.121295  0.942022  0.767452  1
  O  O88  1  0.942131  0.378696  0.767426  1
  O  O89  1  0.995299  0.504691  0.315623  1
  O  O90  1  0.995318  0.995172  0.315640  1
  O  O91  1  0.504813  0.995169  0.315653  1
  O  O92  1  0.504795  0.504688  0.315634  1
  O  O93  1  0.004794  0.495172  0.684560  1
  O  O94  1  0.004813  0.004691  0.684577  1
  O  O95  1  0.495317  0.004688  0.684590  1
  O  O96  1  0.495299  0.495168  0.684572  1
  Si  Si97  1  0.065663  0.552728  0.334418  1
  Si  Si98  1  0.947237  0.065544  0.334394  1
  Si  Si99  1  0.434449  0.947132  0.334449  1
  Si  Si100  1  0.552878  0.434317  0.334387  1
  Si  Si101  1  0.434429  0.552723  0.334428  1
  Si  Si102  1  0.552894  0.065540  0.334409  1
  Si  Si103  1  0.065682  0.947135  0.334433  1
  Si  Si104  1  0.947218  0.434320  0.334377  1
  Si  Si105  1  0.934430  0.447136  0.665766  1
  Si  Si106  1  0.052895  0.934320  0.665822  1
  Si  Si107  1  0.565682  0.052723  0.665798  1
  Si  Si108  1  0.447219  0.565541  0.665816  1
  Si  Si109  1  0.565663  0.447131  0.665776  1
  Si  Si110  1  0.447236  0.934317  0.665837  1
  Si  Si111  1  0.934448  0.052727  0.665781  1
  Si  Si112  1  0.052876  0.565543  0.665808  1
  Si  Si113  1  0.952913  0.665834  0.843224  1
  Si  Si114  1  0.834108  0.952786  0.843206  1
  Si  Si115  1  0.547198  0.834025  0.843254  1
  Si  Si116  1  0.666003  0.547073  0.843194  1
  Si  Si117  1  0.547183  0.665829  0.843233  1
  Si  Si118  1  0.666019  0.952781  0.843223  1
  Si  Si119  1  0.952928  0.834030  0.843232  1
  Si  Si120  1  0.834093  0.547079  0.843190  1
  Si  Si121  1  0.047184  0.334031  0.156965  1
  Si  Si122  1  0.166019  0.047079  0.157012  1
  Si  Si123  1  0.452928  0.165829  0.156995  1
  Si  Si124  1  0.334092  0.452781  0.157000  1
  Si  Si125  1  0.452914  0.334025  0.156974  1
  Si  Si126  1  0.334109  0.047073  0.157028  1
  Si  Si127  1  0.047199  0.165834  0.156973  1
  Si  Si128  1  0.166003  0.452787  0.156997  1
  Si  Si129  1  0.066157  0.833763  0.088501  1
  Si  Si130  1  0.666281  0.066030  0.088593  1
  Si  Si131  1  0.433953  0.666097  0.088500  1
  Si  Si132  1  0.833831  0.433830  0.088561  1
  Si  Si133  1  0.433967  0.833758  0.088518  1
  Si  Si134  1  0.833848  0.066033  0.088582  1
  Si  Si135  1  0.066145  0.666101  0.088489  1
  Si  Si136  1  0.666265  0.433829  0.088573  1
  Si  Si137  1  0.933966  0.166101  0.911709  1
  Si  Si138  1  0.333848  0.933828  0.911651  1
  Si  Si139  1  0.566145  0.333758  0.911708  1
  Si  Si140  1  0.166264  0.566032  0.911620  1
  Si  Si141  1  0.566158  0.166096  0.911728  1
  Si  Si142  1  0.166281  0.933830  0.911641  1
  Si  Si143  1  0.933954  0.333762  0.911697  1
  Si  Si144  1  0.333831  0.566031  0.911630  1
