# generated using pymatgen
data_SiO2
_symmetry_space_group_name_H-M   'P 1'
_cell_length_a   10.13787410
_cell_length_b   10.13810602
_cell_length_c   34.50007601
_cell_angle_alpha   90.00000000
_cell_angle_beta   90.00000000
_cell_angle_gamma   90.00000000
_symmetry_Int_Tables_number   1
_chemical_formula_structural   SiO2
_chemical_formula_sum   'Si64 O128'
_cell_volume   3545.87787804
_cell_formula_units_Z   64
loop_
 _symmetry_equiv_pos_site_id
 _symmetry_equiv_pos_as_xyz
  1  'x, y, z'
loop_
 _atom_site_type_symbol
 _atom_site_label
 _atom_site_symmetry_multiplicity
 _atom_site_fract_x
 _atom_site_fract_y
 _atom_site_fract_z
 _atom_site_occupancy
  O  O1  1  0.186190  0.249892  0.152047  1
  O  O2  1  0.813908  0.249718  0.152040  1
  O  O3  1  0.500176  0.563593  0.098010  1
  O  O4  1  0.499953  0.935889  0.097985  1
  O  O5  1  0.377778  0.127455  0.125078  1
  O  O6  1  0.622384  0.372089  0.125079  1
  O  O7  1  0.622426  0.127471  0.124910  1
  O  O8  1  0.377771  0.372090  0.125020  1
  O  O9  1  0.226273  0.249601  0.076038  1
  O  O10  1  0.774045  0.250209  0.076022  1
  O  O11  1  0.500153  0.749681  0.046788  1
  O  O12  1  0.373766  0.540031  0.033499  1
  O  O13  1  0.626440  0.959373  0.033481  1
  O  O14  1  0.626543  0.540026  0.033476  1
  O  O15  1  0.373668  0.959252  0.033447  1
  O  O16  1  0.805011  0.122910  0.013425  1
  O  O17  1  0.195267  0.376508  0.013384  1
  O  O18  1  0.195184  0.122827  0.013365  1
  O  O19  1  0.805116  0.376602  0.013305  1
  O  O20  1  0.000154  0.249763  0.042402  1
  Si  Si21  1  0.287519  0.249752  0.117559  1
  Si  Si22  1  0.712684  0.249854  0.117527  1
  Si  Si23  1  0.500063  0.462367  0.132521  1
  Si  Si24  1  0.500161  0.037206  0.132475  1
  Si  Si25  1  0.500174  0.598062  0.053485  1
  Si  Si26  1  0.500048  0.901310  0.053466  1
  Si  Si27  1  0.277242  0.499732  0.000048  1
  Si  Si28  1  0.152784  0.249667  0.036270  1
  Si  Si29  1  0.847531  0.249850  0.036255  1
  Si  Si30  1  0.722954  0.999803  0.000043  1
  O  O31  1  0.000056  0.976135  0.326033  1
  O  O32  1  0.000020  0.523881  0.326012  1
  O  O33  1  0.499969  0.523734  0.174026  1
  O  O34  1  0.500500  0.975962  0.173996  1
  O  O35  1  0.000020  0.249838  0.203258  1
  O  O36  1  0.500116  0.250104  0.296786  1
  O  O37  1  0.209738  0.123614  0.216570  1
  O  O38  1  0.790431  0.376303  0.216546  1
  O  O39  1  0.790318  0.123528  0.216580  1
  O  O40  1  0.209608  0.376379  0.216562  1
  O  O41  1  0.290348  0.376284  0.283475  1
  O  O42  1  0.709692  0.123553  0.283500  1
  O  O43  1  0.709852  0.376334  0.283475  1
  O  O44  1  0.290606  0.123511  0.283467  1
  O  O45  1  0.373223  0.945029  0.236611  1
  O  O46  1  0.626926  0.554816  0.236670  1
  O  O47  1  0.626895  0.944934  0.236718  1
  O  O48  1  0.373242  0.554829  0.236690  1
  O  O49  1  0.126943  0.554944  0.263375  1
  O  O50  1  0.873276  0.945074  0.263373  1
  O  O51  1  0.873269  0.554922  0.263338  1
  O  O52  1  0.126980  0.945080  0.263377  1
  O  O53  1  0.000086  0.750019  0.292402  1
  O  O54  1  0.500092  0.749887  0.207639  1
  Si  Si55  1  0.151646  0.249953  0.196568  1
  Si  Si56  1  0.848395  0.249854  0.196564  1
  Si  Si57  1  0.348489  0.249948  0.303472  1
  Si  Si58  1  0.651738  0.250004  0.303482  1
  Si  Si59  1  0.250141  0.027096  0.250007  1
  Si  Si60  1  0.750126  0.472799  0.250005  1
  Si  Si61  1  0.750045  0.027059  0.250047  1
  Si  Si62  1  0.250042  0.472806  0.250025  1
  Si  Si63  1  0.000123  0.902642  0.286267  1
  Si  Si64  1  0.000069  0.597402  0.286251  1
  Si  Si65  1  0.500066  0.597269  0.213786  1
  Si  Si66  1  0.500145  0.902513  0.213769  1
  O  O67  1  0.000104  0.936103  0.402046  1
  O  O68  1  0.000082  0.563830  0.402024  1
  O  O69  1  0.313958  0.249919  0.347994  1
  O  O70  1  0.686232  0.249997  0.348006  1
  O  O71  1  0.122374  0.127680  0.375018  1
  O  O72  1  0.877793  0.372281  0.375013  1
  O  O73  1  0.877747  0.127652  0.375045  1
  O  O74  1  0.122424  0.372310  0.374993  1
  O  O75  1  0.273912  0.249983  0.424008  1
  O  O76  1  0.726175  0.250050  0.424016  1
  O  O77  1  0.000083  0.749921  0.453250  1
  O  O78  1  0.126448  0.959574  0.466572  1
  O  O79  1  0.873629  0.540268  0.466535  1
  O  O80  1  0.873671  0.959526  0.466565  1
  O  O81  1  0.126411  0.540241  0.466549  1
  O  O82  1  0.695119  0.376701  0.486687  1
  O  O83  1  0.304944  0.123125  0.486673  1
  O  O84  1  0.304979  0.376796  0.486671  1
  O  O85  1  0.695082  0.122997  0.486644  1
  O  O86  1  0.500030  0.249929  0.457630  1
  Si  Si87  1  0.000064  0.037399  0.367552  1
  Si  Si88  1  0.000089  0.462561  0.367522  1
  Si  Si89  1  0.212659  0.249981  0.382489  1
  Si  Si90  1  0.787504  0.249996  0.382507  1
  Si  Si91  1  0.000078  0.901548  0.446566  1
  Si  Si92  1  0.000042  0.598304  0.446549  1
  Si  Si93  1  0.347408  0.249952  0.463775  1
  Si  Si94  1  0.652652  0.249900  0.463777  1
  Si  Si95  1  0.777162  0.499919  0.499998  1
  O  O96  1  0.686061  0.749928  0.652041  1
  O  O97  1  0.313767  0.749805  0.652027  1
  O  O98  1  0.999939  0.063804  0.597991  1
  O  O99  1  0.999941  0.436080  0.597989  1
  O  O100  1  0.877635  0.627521  0.625098  1
  O  O101  1  0.122284  0.872209  0.624972  1
  O  O102  1  0.122245  0.627588  0.624994  1
  O  O103  1  0.877641  0.872165  0.624983  1
  O  O104  1  0.726156  0.749607  0.576030  1
  O  O105  1  0.273916  0.749806  0.576013  1
  O  O106  1  0.000034  0.249997  0.546775  1
  O  O107  1  0.873629  0.040367  0.533465  1
  O  O108  1  0.126440  0.459648  0.533475  1
  O  O109  1  0.126400  0.040333  0.533481  1
  O  O110  1  0.873665  0.459657  0.533459  1
  O  O111  1  0.304973  0.623153  0.513331  1
  O  O112  1  0.695184  0.876748  0.513397  1
  O  O113  1  0.695069  0.623079  0.513330  1
  O  O114  1  0.304981  0.876840  0.513386  1
  O  O115  1  0.500053  0.749925  0.542397  1
  Si  Si116  1  0.787386  0.749809  0.617553  1
  Si  Si117  1  0.212541  0.749871  0.617516  1
  Si  Si118  1  0.999948  0.962438  0.632471  1
  Si  Si119  1  0.000004  0.537268  0.632509  1
  Si  Si120  1  0.000004  0.098376  0.553471  1
  Si  Si121  1  0.000030  0.401621  0.553465  1
  Si  Si122  1  0.222900  0.999971  0.500030  1
  Si  Si123  1  0.777181  0.999897  0.500016  1
  Si  Si124  1  0.652678  0.749869  0.536260  1
  Si  Si125  1  0.347432  0.749940  0.536250  1
  Si  Si126  1  0.222909  0.499961  0.500009  1
  O  O127  1  0.500183  0.475824  0.826007  1
  O  O128  1  0.499607  0.023600  0.826044  1
  O  O129  1  0.999942  0.023630  0.673998  1
  O  O130  1  0.000263  0.475863  0.674009  1
  O  O131  1  0.499881  0.749747  0.703244  1
  O  O132  1  0.000061  0.749683  0.796780  1
  O  O133  1  0.709566  0.623412  0.716545  1
  O  O134  1  0.290225  0.876112  0.716546  1
  O  O135  1  0.290259  0.623326  0.716551  1
  O  O136  1  0.709489  0.876176  0.716580  1
  O  O137  1  0.790429  0.876087  0.783470  1
  O  O138  1  0.209743  0.623388  0.783486  1
  O  O139  1  0.209648  0.876168  0.783470  1
  O  O140  1  0.790388  0.623323  0.783450  1
  O  O141  1  0.873119  0.444860  0.736620  1
  O  O142  1  0.126748  0.054659  0.736664  1
  O  O143  1  0.126804  0.444789  0.736710  1
  O  O144  1  0.873057  0.054677  0.736658  1
  O  O145  1  0.626825  0.054595  0.763432  1
  O  O146  1  0.373179  0.444824  0.763363  1
  O  O147  1  0.373139  0.054678  0.763329  1
  O  O148  1  0.626857  0.444775  0.763333  1
  O  O149  1  0.499967  0.249712  0.792396  1
  O  O150  1  0.999967  0.249737  0.707630  1
  Si  Si151  1  0.651509  0.749813  0.696562  1
  Si  Si152  1  0.348257  0.749727  0.696551  1
  Si  Si153  1  0.848431  0.749682  0.803459  1
  Si  Si154  1  0.151683  0.749774  0.803478  1
  Si  Si155  1  0.749980  0.526899  0.749986  1
  Si  Si156  1  0.249939  0.972624  0.750001  1
  Si  Si157  1  0.249998  0.526874  0.750027  1
  Si  Si158  1  0.749951  0.972595  0.750037  1
  Si  Si159  1  0.500037  0.402329  0.786242  1
  Si  Si160  1  0.499901  0.097081  0.786275  1
  Si  Si161  1  0.999914  0.097113  0.713767  1
  Si  Si162  1  0.000031  0.402359  0.713773  1
  O  O163  1  0.500013  0.435953  0.902029  1
  O  O164  1  0.500199  0.063655  0.902051  1
  O  O165  1  0.813911  0.749702  0.847981  1
  O  O166  1  0.186205  0.749859  0.848000  1
  O  O167  1  0.622376  0.627460  0.875014  1
  O  O168  1  0.377710  0.872065  0.875130  1
  O  O169  1  0.377759  0.627439  0.874948  1
  O  O170  1  0.622354  0.872089  0.874970  1
  O  O171  1  0.773917  0.749886  0.923995  1
  O  O172  1  0.226133  0.749262  0.924014  1
  O  O173  1  0.500077  0.249853  0.953250  1
  O  O174  1  0.626457  0.459494  0.966542  1
  O  O175  1  0.373761  0.040164  0.966555  1
  O  O176  1  0.373683  0.459494  0.966567  1
  O  O177  1  0.626532  0.040257  0.966585  1
  O  O178  1  0.195199  0.876595  0.986605  1
  O  O179  1  0.804952  0.622999  0.986657  1
  O  O180  1  0.805007  0.876673  0.986667  1
  O  O181  1  0.195096  0.622902  0.986739  1
  O  O182  1  0.000045  0.749734  0.957637  1
  Si  Si183  1  0.500094  0.537169  0.867515  1
  Si  Si184  1  0.499972  0.962333  0.867563  1
  Si  Si185  1  0.712625  0.749795  0.882479  1
  Si  Si186  1  0.287459  0.749671  0.882505  1
  Si  Si187  1  0.500048  0.401473  0.946554  1
  Si  Si188  1  0.500154  0.098225  0.946571  1
  Si  Si189  1  0.277246  0.999703  0.999989  1
  Si  Si190  1  0.152668  0.749642  0.963784  1
  Si  Si191  1  0.847413  0.749833  0.963763  1
  Si  Si192  1  0.722980  0.499777  0.999995  1
