# generated using pymatgen
data_SiO2
_symmetry_space_group_name_H-M   'P 1'
_cell_length_a   22.37688854
_cell_length_b   13.79891269
_cell_length_c   6.95425229
_cell_angle_alpha   90.00000000
_cell_angle_beta   99.01600000
_cell_angle_gamma   90.00000000
_symmetry_Int_Tables_number   1
_chemical_formula_structural   SiO2
_chemical_formula_sum   'Si32 O64'
_cell_volume   2120.78043712
_cell_formula_units_Z   32
loop_
 _symmetry_equiv_pos_site_id
 _symmetry_equiv_pos_as_xyz
  1  'x, y, z'
loop_
 _atom_site_type_symbol
 _atom_site_label
 _atom_site_symmetry_multiplicity
 _atom_site_fract_x
 _atom_site_fract_y
 _atom_site_fract_z
 _atom_site_occupancy
  O  O1  1  0.925905  0.999933  0.026714  1
  O  O2  1  0.425905  0.499869  0.026709  1
  O  O3  1  0.073991  0.999799  0.973448  1
  O  O4  1  0.573993  0.499863  0.973463  1
  O  O5  1  0.782034  0.138226  0.071245  1
  O  O6  1  0.281978  0.638155  0.071212  1
  O  O7  1  0.217960  0.138151  0.928896  1
  O  O8  1  0.717904  0.638222  0.928891  1
  O  O9  1  0.217856  0.861502  0.928939  1
  O  O10  1  0.717925  0.361583  0.928921  1
  O  O11  1  0.781926  0.861595  0.071285  1
  O  O12  1  0.281997  0.361513  0.071239  1
  O  O13  1  0.999985  0.137138  0.000009  1
  O  O14  1  0.499946  0.637138  0.000083  1
  O  O15  1  0.999898  0.862595  0.000146  1
  O  O16  1  0.499956  0.362595  0.000105  1
  O  O17  1  0.722674  0.999932  0.878260  1
  O  O18  1  0.222691  0.499834  0.878203  1
  O  O19  1  0.277206  0.999804  0.121938  1
  O  O20  1  0.777221  0.499904  0.121909  1
  O  O21  1  0.836726  0.173586  0.418698  1
  O  O22  1  0.336676  0.673532  0.418691  1
  O  O23  1  0.163261  0.173495  0.581409  1
  O  O24  1  0.663210  0.673547  0.581426  1
  O  O25  1  0.163158  0.826150  0.581483  1
  O  O26  1  0.663236  0.326202  0.581446  1
  O  O27  1  0.836619  0.826243  0.418768  1
  O  O28  1  0.336699  0.326189  0.418708  1
  O  O29  1  0.812556  0.690223  0.159378  1
  O  O30  1  0.312607  0.190128  0.159416  1
  O  O31  1  0.187297  0.690115  0.840774  1
  O  O32  1  0.687347  0.190209  0.840845  1
  O  O33  1  0.187343  0.309520  0.840756  1
  O  O34  1  0.687277  0.809602  0.840752  1
  O  O35  1  0.812605  0.309617  0.159361  1
  O  O36  1  0.312541  0.809536  0.159330  1
  O  O37  1  0.893947  0.170534  0.121539  1
  O  O38  1  0.393894  0.670449  0.121539  1
  O  O39  1  0.106037  0.170352  0.878532  1
  O  O40  1  0.605985  0.670435  0.878554  1
  O  O41  1  0.105943  0.829182  0.878670  1
  O  O42  1  0.606005  0.329303  0.878591  1
  O  O43  1  0.893850  0.829403  0.121679  1
  O  O44  1  0.393913  0.329281  0.121570  1
  O  O45  1  0.780401  0.873567  0.710792  1
  O  O46  1  0.280464  0.373483  0.710743  1
  O  O47  1  0.219412  0.873430  0.289436  1
  O  O48  1  0.719474  0.373514  0.289416  1
  O  O49  1  0.219480  0.126175  0.289403  1
  O  O50  1  0.719446  0.626247  0.289389  1
  O  O51  1  0.780471  0.126302  0.710761  1
  O  O52  1  0.280439  0.626227  0.710719  1
  O  O53  1  0.895150  0.126869  0.768906  1
  O  O54  1  0.395117  0.626821  0.768940  1
  O  O55  1  0.104811  0.126766  0.231131  1
  O  O56  1  0.604778  0.626816  0.231192  1
  O  O57  1  0.104732  0.872870  0.231263  1
  O  O58  1  0.604794  0.372908  0.231206  1
  O  O59  1  0.895069  0.872962  0.769037  1
  O  O60  1  0.395133  0.372920  0.768955  1
  O  O61  1  0.838225  0.999915  0.553934  1
  O  O62  1  0.338239  0.499866  0.553895  1
  O  O63  1  0.161661  0.999819  0.446258  1
  O  O64  1  0.661672  0.499869  0.446245  1
  Si  Si65  1  0.833344  0.200152  0.197256  1
  Si  Si66  1  0.333289  0.700077  0.197229  1
  Si  Si67  1  0.166635  0.200039  0.802869  1
  Si  Si68  1  0.666580  0.700114  0.802870  1
  Si  Si69  1  0.166545  0.799577  0.802927  1
  Si  Si70  1  0.666611  0.299668  0.802911  1
  Si  Si71  1  0.833251  0.799707  0.197314  1
  Si  Si72  1  0.333316  0.299612  0.197265  1
  Si  Si73  1  0.930414  0.887986  0.982679  1
  Si  Si74  1  0.430464  0.387931  0.982624  1
  Si  Si75  1  0.069398  0.887873  0.017593  1
  Si  Si76  1  0.569449  0.387925  0.017561  1
  Si  Si77  1  0.069467  0.111749  0.017483  1
  Si  Si78  1  0.569438  0.611802  0.017538  1
  Si  Si79  1  0.930483  0.111862  0.982573  1
  Si  Si80  1  0.430454  0.611808  0.982603  1
  Si  Si81  1  0.739582  0.888375  0.874577  1
  Si  Si82  1  0.239647  0.388292  0.874538  1
  Si  Si83  1  0.260220  0.888275  0.125618  1
  Si  Si84  1  0.760284  0.388357  0.125606  1
  Si  Si85  1  0.260298  0.111363  0.125614  1
  Si  Si86  1  0.760260  0.611442  0.125581  1
  Si  Si87  1  0.739663  0.111462  0.874579  1
  Si  Si88  1  0.239624  0.611382  0.874513  1
  Si  Si89  1  0.837702  0.110964  0.607548  1
  Si  Si90  1  0.337680  0.610909  0.607545  1
  Si  Si91  1  0.162238  0.110856  0.392562  1
  Si  Si92  1  0.662214  0.610912  0.392591  1
  Si  Si93  1  0.162178  0.888771  0.392634  1
  Si  Si94  1  0.662233  0.388826  0.392595  1
  Si  Si95  1  0.837640  0.888881  0.607621  1
  Si  Si96  1  0.337697  0.388822  0.607547  1
