# generated using pymatgen
data_SiO2
_symmetry_space_group_name_H-M   'P 1'
_cell_length_a   13.97504385
_cell_length_b   18.39148122
_cell_length_c   7.37523501
_cell_angle_alpha   90.00000000
_cell_angle_beta   98.98900000
_cell_angle_gamma   90.00000000
_symmetry_Int_Tables_number   1
_chemical_formula_structural   SiO2
_chemical_formula_sum   'Si32 O64'
_cell_volume   1872.31482207
_cell_formula_units_Z   32
loop_
 _symmetry_equiv_pos_site_id
 _symmetry_equiv_pos_as_xyz
  1  'x, y, z'
loop_
 _atom_site_type_symbol
 _atom_site_label
 _atom_site_symmetry_multiplicity
 _atom_site_fract_x
 _atom_site_fract_y
 _atom_site_fract_z
 _atom_site_occupancy
  O  O1  1  0.623649  0.000243  0.607332  1
  O  O2  1  0.123463  0.499918  0.607454  1
  O  O3  1  0.377222  0.999541  0.392626  1
  O  O4  1  0.877045  0.499887  0.392777  1
  O  O5  1  0.704067  0.928939  0.373709  1
  O  O6  1  0.203612  0.428849  0.373108  1
  O  O7  1  0.297156  0.928784  0.627634  1
  O  O8  1  0.796703  0.428877  0.627007  1
  O  O9  1  0.296850  0.070855  0.626459  1
  O  O10  1  0.796951  0.570964  0.627200  1
  O  O11  1  0.703768  0.071026  0.372614  1
  O  O12  1  0.203860  0.570922  0.373310  1
  O  O13  1  0.543183  0.999815  0.288719  1
  O  O14  1  0.043002  0.500002  0.288833  1
  O  O15  1  0.457702  0.999998  0.711245  1
  O  O16  1  0.957527  0.499803  0.711394  1
  O  O17  1  0.598145  0.072480  0.884085  1
  O  O18  1  0.098153  0.572114  0.884355  1
  O  O19  1  0.402360  0.072012  0.116137  1
  O  O20  1  0.902360  0.572380  0.116392  1
  O  O21  1  0.402804  0.927288  0.115918  1
  O  O22  1  0.902355  0.427673  0.115978  1
  O  O23  1  0.598556  0.927823  0.883888  1
  O  O24  1  0.098145  0.427436  0.883926  1
  O  O25  1  0.321211  0.687578  0.382981  1
  O  O26  1  0.820646  0.187842  0.382896  1
  O  O27  1  0.680184  0.687855  0.616996  1
  O  O28  1  0.179622  0.187587  0.616915  1
  O  O29  1  0.679552  0.312164  0.616962  1
  O  O30  1  0.180246  0.811966  0.617637  1
  O  O31  1  0.320576  0.312012  0.382932  1
  O  O32  1  0.821275  0.812215  0.383568  1
  O  O33  1  0.387179  0.796524  0.228518  1
  O  O34  1  0.886145  0.297121  0.229279  1
  O  O35  1  0.615198  0.797373  0.770460  1
  O  O36  1  0.114161  0.296760  0.771274  1
  O  O37  1  0.613864  0.203119  0.771154  1
  O  O38  1  0.114590  0.702653  0.771278  1
  O  O39  1  0.385848  0.202600  0.229155  1
  O  O40  1  0.886579  0.703065  0.229286  1
  O  O41  1  0.353535  0.805206  0.556067  1
  O  O42  1  0.853114  0.305117  0.557370  1
  O  O43  1  0.647608  0.805020  0.441918  1
  O  O44  1  0.147175  0.305114  0.443258  1
  O  O45  1  0.647191  0.194674  0.443306  1
  O  O46  1  0.147761  0.694714  0.443236  1
  O  O47  1  0.353131  0.194705  0.557417  1
  O  O48  1  0.853697  0.694670  0.557347  1
  O  O49  1  0.500664  0.736165  0.500636  1
  O  O50  1  0.000145  0.236157  0.500079  1
  O  O51  1  0.500056  0.263644  0.499590  1
  O  O52  1  0.000740  0.763647  0.500455  1
  O  O53  1  0.323670  0.834131  0.881730  1
  O  O54  1  0.822615  0.334588  0.882143  1
  O  O55  1  0.678534  0.834886  0.117817  1
  O  O56  1  0.177473  0.334430  0.118257  1
  O  O57  1  0.677416  0.165577  0.118142  1
  O  O58  1  0.177879  0.665196  0.118311  1
  O  O59  1  0.322558  0.165001  0.882021  1
  O  O60  1  0.823019  0.665395  0.882192  1
  O  O61  1  0.501129  0.828272  0.999665  1
  O  O62  1  0.999354  0.328283  0.000033  1
  O  O63  1  0.499941  0.171518  0.000215  1
  O  O64  1  0.000435  0.671518  0.000226  1
  Si  Si65  1  0.400717  0.844923  0.059942  1
  Si  Si66  1  0.899739  0.345277  0.060300  1
  Si  Si67  1  0.601442  0.845431  0.939553  1
  Si  Si68  1  0.100484  0.345084  0.939931  1
  Si  Si69  1  0.600356  0.154838  0.939956  1
  Si  Si70  1  0.100792  0.654496  0.940133  1
  Si  Si71  1  0.399611  0.154401  0.060320  1
  Si  Si72  1  0.900046  0.654746  0.060495  1
  Si  Si73  1  0.392861  0.754391  0.414726  1
  Si  Si74  1  0.892271  0.254629  0.415127  1
  Si  Si75  1  0.608650  0.754686  0.584731  1
  Si  Si76  1  0.108058  0.254441  0.585168  1
  Si  Si77  1  0.607922  0.245364  0.584996  1
  Si  Si78  1  0.108609  0.745179  0.585503  1
  Si  Si79  1  0.392135  0.245171  0.414947  1
  Si  Si80  1  0.892824  0.745359  0.415451  1
  Si  Si81  1  0.284771  0.845895  0.670719  1
  Si  Si82  1  0.784046  0.346094  0.670844  1
  Si  Si83  1  0.716857  0.846236  0.329295  1
  Si  Si84  1  0.216126  0.346035  0.329454  1
  Si  Si85  1  0.716165  0.153886  0.329282  1
  Si  Si86  1  0.216643  0.653692  0.329508  1
  Si  Si87  1  0.284087  0.153591  0.670661  1
  Si  Si88  1  0.784564  0.653788  0.670892  1
  Si  Si89  1  0.646726  0.999974  0.407399  1
  Si  Si90  1  0.146539  0.499931  0.407504  1
  Si  Si91  1  0.354164  0.999826  0.592606  1
  Si  Si92  1  0.853986  0.499873  0.592737  1
  Si  Si93  1  0.569964  0.000150  0.777265  1
  Si  Si94  1  0.069796  0.499820  0.777423  1
  Si  Si95  1  0.430910  0.999654  0.222667  1
  Si  Si96  1  0.930728  0.499983  0.222828  1
