# generated using pymatgen
data_SiO2
_symmetry_space_group_name_H-M   'P 1'
_cell_length_a   12.87234964
_cell_length_b   12.87099131
_cell_length_c   30.43154753
_cell_angle_alpha   90.00000000
_cell_angle_beta   90.00000000
_cell_angle_gamma   120.00000000
_symmetry_Int_Tables_number   1
_chemical_formula_structural   SiO2
_chemical_formula_sum   'Si72 O144'
_cell_volume   4366.40981431
_cell_formula_units_Z   72
loop_
 _symmetry_equiv_pos_site_id
 _symmetry_equiv_pos_as_xyz
  1  'x, y, z'
loop_
 _atom_site_type_symbol
 _atom_site_label
 _atom_site_symmetry_multiplicity
 _atom_site_fract_x
 _atom_site_fract_y
 _atom_site_fract_z
 _atom_site_occupancy
  O  O1  1  0.029983  0.345974  0.166884  1
  O  O2  1  0.029899  0.685194  0.166865  1
  O  O3  1  0.030006  0.345984  0.333161  1
  O  O4  1  0.029942  0.685209  0.333156  1
  O  O5  1  0.030113  0.345911  0.083182  1
  O  O6  1  0.030085  0.685323  0.083159  1
  O  O7  1  0.030143  0.345968  0.416862  1
  O  O8  1  0.030093  0.685337  0.416862  1
  O  O9  1  0.084338  0.542760  0.124972  1
  O  O10  1  0.084385  0.542795  0.375055  1
  Si  Si11  1  0.091688  0.667357  0.125023  1
  Si  Si12  1  0.091749  0.425548  0.125030  1
  Si  Si13  1  0.091787  0.425578  0.375009  1
  Si  Si14  1  0.091722  0.667383  0.375003  1
  Si  Si15  1  0.998888  0.239323  0.300421  1
  Si  Si16  1  0.998935  0.760825  0.300410  1
  Si  Si17  1  0.998866  0.239318  0.199627  1
  Si  Si18  1  0.998912  0.760817  0.199616  1
  Si  Si19  1  0.998878  0.239291  0.050417  1
  Si  Si20  1  0.998820  0.760686  0.050396  1
  Si  Si21  1  0.998878  0.239345  0.449629  1
  Si  Si22  1  0.998837  0.760697  0.449630  1
  O  O23  1  0.998464  0.270479  0.250024  1
  O  O24  1  0.998437  0.729204  0.250014  1
  O  O25  1  0.998499  0.270682  0.000030  1
  O  O26  1  0.998466  0.728961  0.000005  1
  O  O27  1  0.998491  0.728968  0.500020  1
  O  O28  1  0.998531  0.729266  0.750010  1
  Si  Si29  1  0.572875  0.667353  0.125048  1
  Si  Si30  1  0.331009  0.906634  0.124993  1
  Si  Si31  1  0.572830  0.906642  0.125021  1
  Si  Si32  1  0.331029  0.425541  0.125025  1
  Si  Si33  1  0.905219  0.574162  0.625028  1
  Si  Si34  1  0.424122  0.332353  0.625023  1
  Si  Si35  1  0.665949  0.093038  0.625021  1
  Si  Si36  1  0.424131  0.093046  0.625029  1
  Si  Si37  1  0.905244  0.332338  0.625020  1
  Si  Si38  1  0.665944  0.574184  0.625022  1
  Si  Si39  1  0.905231  0.574151  0.875001  1
  Si  Si40  1  0.424122  0.332322  0.875007  1
  Si  Si41  1  0.665941  0.093018  0.875030  1
  Si  Si42  1  0.424116  0.093007  0.874993  1
  Si  Si43  1  0.905238  0.332317  0.875032  1
  Si  Si44  1  0.665946  0.574151  0.875013  1
  Si  Si45  1  0.572896  0.667369  0.375001  1
  Si  Si46  1  0.331035  0.906669  0.375027  1
  Si  Si47  1  0.572848  0.906657  0.375029  1
  Si  Si48  1  0.331056  0.425548  0.375004  1
  Si  Si49  1  0.759140  0.760853  0.199628  1
  Si  Si50  1  0.237777  0.999551  0.199612  1
  Si  Si51  1  0.758994  0.999591  0.199632  1
  Si  Si52  1  0.237628  0.239288  0.199617  1
  Si  Si53  1  0.998075  0.760414  0.699616  1
  Si  Si54  1  0.237908  0.239045  0.699617  1
  Si  Si55  1  0.759324  0.000230  0.699632  1
  Si  Si56  1  0.237869  0.000219  0.699610  1
  Si  Si57  1  0.998112  0.239029  0.699631  1
  Si  Si58  1  0.759281  0.760396  0.699624  1
  Si  Si59  1  0.998086  0.760391  0.800408  1
  Si  Si60  1  0.237917  0.239031  0.800410  1
  Si  Si61  1  0.759343  0.000219  0.800426  1
  Si  Si62  1  0.237877  0.000203  0.800404  1
  Si  Si63  1  0.998126  0.239023  0.800424  1
  Si  Si64  1  0.759295  0.760383  0.800417  1
  Si  Si65  1  0.759157  0.760847  0.300422  1
  Si  Si66  1  0.237795  0.999561  0.300404  1
  Si  Si67  1  0.759024  0.999591  0.300425  1
  Si  Si68  1  0.237657  0.239304  0.300411  1
  Si  Si69  1  0.759039  0.760669  0.050412  1
  Si  Si70  1  0.237577  0.999476  0.050388  1
  Si  Si71  1  0.759108  0.999490  0.050421  1
  Si  Si72  1  0.237651  0.239312  0.050403  1
  Si  Si73  1  0.998142  0.760389  0.550406  1
  Si  Si74  1  0.237907  0.238959  0.550403  1
  Si  Si75  1  0.759389  0.000222  0.550409  1
  Si  Si76  1  0.237920  0.000181  0.550408  1
  Si  Si77  1  0.998155  0.239004  0.550406  1
  Si  Si78  1  0.759399  0.760429  0.550405  1
  Si  Si79  1  0.998102  0.760384  0.949620  1
  Si  Si80  1  0.237906  0.238953  0.949626  1
  Si  Si81  1  0.759348  0.000180  0.949644  1
  Si  Si82  1  0.237895  0.000161  0.949612  1
  Si  Si83  1  0.998128  0.238947  0.949640  1
  Si  Si84  1  0.759335  0.760375  0.949636  1
  Si  Si85  1  0.759081  0.760731  0.449630  1
  Si  Si86  1  0.237586  0.999498  0.449631  1
  Si  Si87  1  0.759117  0.999534  0.449632  1
  Si  Si88  1  0.237627  0.239318  0.449626  1
  O  O89  1  0.226138  0.455044  0.125033  1
  O  O90  1  0.543385  0.772258  0.125053  1
  O  O91  1  0.226076  0.772254  0.125031  1
  O  O92  1  0.770840  0.544691  0.625043  1
  O  O93  1  0.453607  0.227441  0.625047  1
  O  O94  1  0.770861  0.227427  0.625027  1
  O  O95  1  0.770850  0.544672  0.874986  1
  O  O96  1  0.453594  0.227403  0.874985  1
  O  O97  1  0.770850  0.227411  0.875020  1
  O  O98  1  0.226172  0.455062  0.374999  1
  O  O99  1  0.543400  0.772271  0.374993  1
  O  O100  1  0.226106  0.772287  0.374998  1
  O  O101  1  0.652510  0.685215  0.166888  1
  O  O102  1  0.313307  0.968474  0.166848  1
  O  O103  1  0.652347  0.968475  0.166883  1
  O  O104  1  0.313186  0.345930  0.166871  1
  O  O105  1  0.967016  0.653766  0.666873  1
  O  O106  1  0.344539  0.314597  0.666869  1
  O  O107  1  0.683756  0.031279  0.666879  1
  O  O108  1  0.344508  0.031250  0.666870  1
  O  O109  1  0.967024  0.314570  0.666878  1
  O  O110  1  0.683713  0.653766  0.666873  1
  O  O111  1  0.967028  0.653739  0.833150  1
  O  O112  1  0.344554  0.314572  0.833157  1
  O  O113  1  0.683771  0.031249  0.833181  1
  O  O114  1  0.344523  0.031239  0.833143  1
  O  O115  1  0.967037  0.314554  0.833179  1
  O  O116  1  0.683723  0.653749  0.833167  1
  O  O117  1  0.652534  0.685220  0.333163  1
  O  O118  1  0.313330  0.968483  0.333164  1
  O  O119  1  0.652396  0.968499  0.333176  1
  O  O120  1  0.313222  0.345950  0.333154  1
  O  O121  1  0.455647  0.542751  0.124996  1
  O  O122  1  0.455584  0.913968  0.124897  1
  O  O123  1  0.912585  0.456928  0.624960  1
  O  O124  1  0.541346  0.456957  0.624942  1
  O  O125  1  0.541354  0.085669  0.624962  1
  O  O126  1  0.912597  0.456916  0.875089  1
  O  O127  1  0.541355  0.456917  0.875084  1
  O  O128  1  0.541339  0.085632  0.875070  1
  O  O129  1  0.455674  0.542758  0.375054  1
  O  O130  1  0.455607  0.913995  0.375135  1
  O  O131  1  0.652444  0.685313  0.083185  1
  O  O132  1  0.312962  0.968233  0.083144  1
  O  O133  1  0.652510  0.968271  0.083185  1
  O  O134  1  0.313042  0.345932  0.083168  1
  O  O135  1  0.966858  0.653766  0.583173  1
  O  O136  1  0.344513  0.314334  0.583168  1
  O  O137  1  0.683975  0.031423  0.583170  1
  O  O138  1  0.344536  0.031439  0.583171  1
  O  O139  1  0.966904  0.314373  0.583172  1
  O  O140  1  0.683995  0.653819  0.583169  1
  O  O141  1  0.966852  0.653774  0.916851  1
  O  O142  1  0.344506  0.314322  0.916858  1
  O  O143  1  0.683948  0.031414  0.916888  1
  O  O144  1  0.344490  0.031383  0.916843  1
  O  O145  1  0.966871  0.314329  0.916883  1
  O  O146  1  0.683960  0.653764  0.916869  1
  O  O147  1  0.652472  0.685358  0.416864  1
  O  O148  1  0.312982  0.968281  0.416871  1
  O  O149  1  0.652498  0.968280  0.416873  1
  O  O150  1  0.313034  0.345926  0.416860  1
  O  O151  1  0.103219  0.209255  0.194521  1
  O  O152  1  0.789035  0.895219  0.194532  1
  O  O153  1  0.103380  0.895181  0.194519  1
  O  O154  1  0.893664  0.790384  0.694527  1
  O  O155  1  0.207905  0.104644  0.694515  1
  O  O156  1  0.893718  0.104625  0.694536  1
  O  O157  1  0.893678  0.790362  0.805504  1
  O  O158  1  0.207911  0.104628  0.805502  1
  O  O159  1  0.893735  0.104621  0.805515  1
  O  O160  1  0.103253  0.209275  0.305514  1
  O  O161  1  0.789056  0.895214  0.305516  1
  O  O162  1  0.103398  0.895190  0.305500  1
  O  O163  1  0.728029  0.729247  0.250026  1
  O  O164  1  0.269395  0.999996  0.250009  1
  O  O165  1  0.727853  0.000028  0.250031  1
  O  O166  1  0.269231  0.270459  0.250013  1
  O  O167  1  0.269057  0.270620  0.750014  1
  O  O168  1  0.727737  0.999784  0.750031  1
  O  O169  1  0.269007  0.999750  0.750005  1
  O  O170  1  0.998553  0.270618  0.750029  1
  O  O171  1  0.727707  0.729242  0.750020  1
  O  O172  1  0.875878  0.122513  0.188984  1
  O  O173  1  0.876048  0.754884  0.188970  1
  O  O174  1  0.243783  0.122463  0.188970  1
  O  O175  1  0.120985  0.877299  0.688963  1
  O  O176  1  0.121037  0.245097  0.688978  1
  O  O177  1  0.753247  0.877287  0.688983  1
  O  O178  1  0.120999  0.877279  0.811055  1
  O  O179  1  0.121056  0.245091  0.811063  1
  O  O180  1  0.753277  0.877279  0.811066  1
  O  O181  1  0.875912  0.122510  0.311067  1
  O  O182  1  0.876068  0.754877  0.311066  1
  O  O183  1  0.243817  0.122480  0.311049  1
  O  O184  1  0.103101  0.208964  0.055224  1
  O  O185  1  0.789424  0.895249  0.055226  1
  O  O186  1  0.103018  0.895264  0.055205  1
  O  O187  1  0.893950  0.790764  0.555215  1
  O  O188  1  0.207555  0.104389  0.555216  1
  O  O189  1  0.893939  0.104443  0.555223  1
  O  O190  1  0.893893  0.790736  0.944820  1
  O  O191  1  0.207555  0.104385  0.944809  1
  O  O192  1  0.893908  0.104385  0.944825  1
  O  O193  1  0.103081  0.208990  0.444816  1
  O  O194  1  0.789460  0.895312  0.444820  1
  O  O195  1  0.103036  0.895271  0.444819  1
  O  O196  1  0.727611  0.728947  0.000024  1
  O  O197  1  0.269298  0.999812  0.999998  1
  O  O198  1  0.727672  0.999845  0.000038  1
  O  O199  1  0.269346  0.270701  0.000012  1
  O  O200  1  0.269338  0.270706  0.500017  1
  O  O201  1  0.727693  0.999880  0.500017  1
  O  O202  1  0.269319  0.999841  0.500020  1
  O  O203  1  0.998517  0.270743  0.500016  1
  O  O204  1  0.727665  0.729010  0.500018  1
  O  O205  1  0.875724  0.122662  0.061202  1
  O  O206  1  0.875634  0.754077  0.061182  1
  O  O207  1  0.244194  0.122679  0.061175  1
  O  O208  1  0.121327  0.876988  0.561188  1
  O  O209  1  0.121318  0.245553  0.561184  1
  O  O210  1  0.752837  0.877046  0.561187  1
  O  O211  1  0.121276  0.876989  0.938834  1
  O  O212  1  0.121298  0.245521  0.938853  1
  O  O213  1  0.752754  0.876986  0.938862  1
  O  O214  1  0.875710  0.122726  0.438848  1
  O  O215  1  0.875662  0.754119  0.438851  1
  O  O216  1  0.244159  0.122682  0.438849  1
