# generated using pymatgen
data_SiO2
_symmetry_space_group_name_H-M   'P 1'
_cell_length_a   13.15692515
_cell_length_b   13.33865525
_cell_length_c   21.45240067
_cell_angle_alpha   90.00000000
_cell_angle_beta   123.64200000
_cell_angle_gamma   90.00000000
_symmetry_Int_Tables_number   1
_chemical_formula_structural   SiO2
_chemical_formula_sum   'Si56 O112'
_cell_volume   3134.25701549
_cell_formula_units_Z   56
loop_
 _symmetry_equiv_pos_site_id
 _symmetry_equiv_pos_as_xyz
  1  'x, y, z'
loop_
 _atom_site_type_symbol
 _atom_site_label
 _atom_site_symmetry_multiplicity
 _atom_site_fract_x
 _atom_site_fract_y
 _atom_site_fract_z
 _atom_site_occupancy
  Si  Si1  1  0.316519  0.114117  0.067225  1
  Si  Si2  1  0.112861  0.114830  0.204046  1
  Si  Si3  1  0.364599  0.114132  0.225616  1
  Si  Si4  1  0.089299  0.245119  0.315185  1
  Si  Si5  1  0.313447  0.383605  0.405245  1
  Si  Si6  1  0.063656  0.114363  0.424890  1
  O  O7  1  0.026734  0.147648  0.120489  1
  O  O8  1  0.001013  0.217406  0.000615  1
  O  O9  1  0.282692  0.498975  0.390010  1
  O  O10  1  0.401916  0.189483  0.060453  1
  O  O11  1  0.332126  0.131648  0.144324  1
  O  O12  1  0.247002  0.133213  0.226144  1
  O  O13  1  0.083731  0.175764  0.254642  1
  O  O14  1  0.098209  0.180765  0.379017  1
  O  O15  1  0.203233  0.315167  0.349117  1
  O  O16  1  0.355802  0.365033  0.489080  1
  O  O17  1  0.180593  0.140407  0.004971  1
  O  O18  1  0.428327  0.365610  0.401399  1
  Si  Si19  1  0.440175  0.293755  0.045278  1
  O  O20  1  0.573822  0.498976  0.413253  1
  O  O21  1  0.928324  0.132341  0.401398  1
  Si  Si22  1  0.940174  0.204197  0.045278  1
  Si  Si23  1  0.816518  0.383835  0.067225  1
  Si  Si24  1  0.612863  0.383122  0.204046  1
  Si  Si25  1  0.864602  0.383821  0.225617  1
  Si  Si26  1  0.589299  0.252833  0.315185  1
  Si  Si27  1  0.813445  0.114345  0.405244  1
  Si  Si28  1  0.563658  0.383590  0.424891  1
  O  O29  1  0.526737  0.350303  0.120490  1
  O  O30  1  0.501011  0.280546  0.000614  1
  O  O31  1  0.680594  0.357545  0.004973  1
  O  O32  1  0.901916  0.308469  0.060453  1
  O  O33  1  0.832129  0.366304  0.144325  1
  O  O34  1  0.838742  0.498976  0.062074  1
  O  O35  1  0.747004  0.364740  0.226144  1
  O  O36  1  0.598487  0.498976  0.209429  1
  O  O37  1  0.583733  0.322188  0.254643  1
  O  O38  1  0.473489  0.184593  0.280006  1
  O  O39  1  0.973492  0.313362  0.280008  1
  O  O40  1  0.895586  0.498977  0.242342  1
  O  O41  1  0.598211  0.317186  0.379017  1
  O  O42  1  0.703229  0.182782  0.349116  1
  O  O43  1  0.855800  0.132918  0.489079  1
  Si  Si44  1  0.561850  0.293754  0.955951  1
  Si  Si45  1  0.061850  0.204197  0.955950  1
  Si  Si46  1  0.685505  0.114116  0.934003  1
  Si  Si47  1  0.185507  0.383836  0.934004  1
  Si  Si48  1  0.389164  0.383122  0.797184  1
  Si  Si49  1  0.637423  0.114130  0.775613  1
  Si  Si50  1  0.137425  0.383819  0.775613  1
  Si  Si51  1  0.412725  0.252832  0.686043  1
  Si  Si52  1  0.688580  0.383607  0.595984  1
  Si  Si53  1  0.188578  0.114346  0.595983  1
  Si  Si54  1  0.438369  0.383590  0.576338  1
  O  O55  1  0.475290  0.350304  0.880739  1
  O  O56  1  0.821432  0.140407  0.996257  1
  O  O57  1  0.719332  0.498977  0.611219  1
  O  O58  1  0.600108  0.189483  0.940776  1
  O  O59  1  0.100107  0.308468  0.940775  1
  O  O60  1  0.669896  0.131648  0.856903  1
  O  O61  1  0.169898  0.366304  0.856905  1
  O  O62  1  0.163282  0.498976  0.939154  1
  O  O63  1  0.755022  0.133212  0.775084  1
  O  O64  1  0.255024  0.364739  0.775086  1
  O  O65  1  0.403538  0.498976  0.791800  1
  O  O66  1  0.418294  0.322188  0.746586  1
  O  O67  1  0.528533  0.184590  0.721221  1
  O  O68  1  0.028536  0.313358  0.721223  1
  O  O69  1  0.106438  0.498975  0.758886  1
  O  O70  1  0.403816  0.317186  0.622211  1
  O  O71  1  0.798795  0.315170  0.652113  1
  O  O72  1  0.298793  0.182785  0.652112  1
  O  O73  1  0.646226  0.365034  0.512150  1
  O  O74  1  0.146223  0.132918  0.512150  1
  O  O75  1  0.573699  0.365610  0.599830  1
  O  O76  1  0.073697  0.132341  0.599830  1
  O  O77  1  0.428203  0.498976  0.587976  1
  O  O78  1  0.321431  0.357545  0.996258  1
  Si  Si79  1  0.889162  0.114829  0.797183  1
  O  O80  1  0.918292  0.175764  0.746586  1
  O  O81  1  0.975288  0.147649  0.880739  1
  O  O82  1  0.903814  0.180766  0.622211  1
  Si  Si83  1  0.912726  0.245119  0.686044  1
  Si  Si84  1  0.938366  0.114363  0.576338  1
  Si  Si85  1  0.316519  0.883835  0.067225  1
  Si  Si86  1  0.112862  0.883122  0.204046  1
  Si  Si87  1  0.364601  0.883821  0.225616  1
  Si  Si88  1  0.089298  0.752833  0.315185  1
  Si  Si89  1  0.313445  0.614344  0.405244  1
  Si  Si90  1  0.063657  0.883590  0.424891  1
  O  O91  1  0.026736  0.850303  0.120490  1
  O  O92  1  0.001012  0.780546  0.000615  1
  O  O93  1  0.395586  0.998977  0.242342  1
  O  O94  1  0.401917  0.808469  0.060453  1
  O  O95  1  0.332128  0.866304  0.144325  1
  O  O96  1  0.338742  0.998976  0.062074  1
  O  O97  1  0.247003  0.864740  0.226144  1
  O  O98  1  0.083733  0.822188  0.254643  1
  O  O99  1  0.098210  0.817186  0.379018  1
  O  O100  1  0.203229  0.682782  0.349115  1
  O  O101  1  0.355800  0.632917  0.489079  1
  O  O102  1  0.073821  0.998976  0.413253  1
  O  O103  1  0.098486  0.998976  0.209429  1
  O  O104  1  0.180593  0.857545  0.004972  1
  O  O105  1  0.428324  0.632342  0.401398  1
  Si  Si106  1  0.440174  0.704197  0.045278  1
  O  O107  1  0.928326  0.865609  0.401399  1
  Si  Si108  1  0.940175  0.793755  0.045278  1
  Si  Si109  1  0.816518  0.614117  0.067225  1
  Si  Si110  1  0.612861  0.614830  0.204045  1
  Si  Si111  1  0.864600  0.614132  0.225616  1
  Si  Si112  1  0.589299  0.745119  0.315185  1
  Si  Si113  1  0.813446  0.883606  0.405245  1
  Si  Si114  1  0.563656  0.614362  0.424890  1
  O  O115  1  0.526735  0.647648  0.120490  1
  O  O116  1  0.501012  0.717405  0.000614  1
  O  O117  1  0.680594  0.640406  0.004972  1
  O  O118  1  0.901916  0.689483  0.060453  1
  O  O119  1  0.832127  0.631648  0.144324  1
  O  O120  1  0.747002  0.633213  0.226143  1
  O  O121  1  0.583731  0.675764  0.254642  1
  O  O122  1  0.473491  0.813362  0.280007  1
  O  O123  1  0.973489  0.684593  0.280006  1
  O  O124  1  0.598209  0.680766  0.379017  1
  O  O125  1  0.703232  0.815167  0.349116  1
  O  O126  1  0.782692  0.998975  0.390010  1
  O  O127  1  0.855802  0.865033  0.489080  1
  Si  Si128  1  0.561849  0.704198  0.955950  1
  Si  Si129  1  0.061850  0.793754  0.955950  1
  Si  Si130  1  0.685506  0.883835  0.934004  1
  Si  Si131  1  0.185505  0.614117  0.934003  1
  Si  Si132  1  0.389161  0.614830  0.797183  1
  Si  Si133  1  0.637424  0.883819  0.775613  1
  Si  Si134  1  0.137423  0.614130  0.775613  1
  Si  Si135  1  0.412726  0.745120  0.686044  1
  Si  Si136  1  0.688578  0.614346  0.595983  1
  Si  Si137  1  0.188580  0.883607  0.595984  1
  Si  Si138  1  0.438366  0.614363  0.576337  1
  O  O139  1  0.475288  0.647649  0.880738  1
  O  O140  1  0.821433  0.857544  0.996258  1
  O  O141  1  0.600108  0.808468  0.940776  1
  O  O142  1  0.100108  0.689483  0.940776  1
  O  O143  1  0.669897  0.866304  0.856904  1
  O  O144  1  0.169896  0.631647  0.856903  1
  O  O145  1  0.755023  0.864739  0.775085  1
  O  O146  1  0.255022  0.633212  0.775084  1
  O  O147  1  0.418292  0.675763  0.746586  1
  O  O148  1  0.528535  0.813359  0.721222  1
  O  O149  1  0.028533  0.684590  0.721221  1
  O  O150  1  0.403813  0.680766  0.622211  1
  O  O151  1  0.798792  0.682785  0.652112  1
  O  O152  1  0.298795  0.815170  0.652113  1
  O  O153  1  0.219331  0.998977  0.611219  1
  O  O154  1  0.646223  0.632918  0.512150  1
  O  O155  1  0.146225  0.865034  0.512150  1
  O  O156  1  0.573697  0.632342  0.599830  1
  O  O157  1  0.073699  0.865612  0.599830  1
  O  O158  1  0.663283  0.998976  0.939154  1
  O  O159  1  0.606438  0.998975  0.758886  1
  O  O160  1  0.321431  0.640407  0.996256  1
  Si  Si161  1  0.889163  0.883122  0.797183  1
  O  O162  1  0.903538  0.998976  0.791800  1
  O  O163  1  0.903815  0.817186  0.622212  1
  O  O164  1  0.928205  0.998975  0.587976  1
  Si  Si165  1  0.912726  0.752832  0.686044  1
  Si  Si166  1  0.938368  0.883590  0.576338  1
  O  O167  1  0.975290  0.850304  0.880739  1
  O  O168  1  0.918294  0.822188  0.746586  1
