# generated using pymatgen
data_SiO2
_symmetry_space_group_name_H-M   'P 1'
_cell_length_a   8.73663417
_cell_length_b   8.73683945
_cell_length_c   8.73685056
_cell_angle_alpha   90.00000000
_cell_angle_beta   90.00000000
_cell_angle_gamma   90.00000000
_symmetry_Int_Tables_number   1
_chemical_formula_structural   SiO2
_chemical_formula_sum   'Si12 O24'
_cell_volume   666.888784257
_cell_formula_units_Z   12
loop_
 _symmetry_equiv_pos_site_id
 _symmetry_equiv_pos_as_xyz
  1  'x, y, z'
loop_
 _atom_site_type_symbol
 _atom_site_label
 _atom_site_symmetry_multiplicity
 _atom_site_fract_x
 _atom_site_fract_y
 _atom_site_fract_z
 _atom_site_occupancy
  O  O1  1  0.145139  0.499893  0.854602  1
  O  O2  1  0.645139  0.999893  0.354602  1
  O  O3  1  0.854831  0.145088  0.499716  1
  O  O4  1  0.354831  0.645087  0.999716  1
  O  O5  1  0.500000  0.854747  0.144895  1
  O  O6  1  0.000000  0.354746  0.644895  1
  O  O7  1  0.145137  0.499987  0.144921  1
  O  O8  1  0.645138  0.999987  0.644921  1
  O  O9  1  0.500008  0.854782  0.854590  1
  O  O10  1  0.000008  0.354783  0.354591  1
  O  O11  1  0.854823  0.499857  0.854601  1
  O  O12  1  0.354823  0.999858  0.354601  1
  O  O13  1  0.145150  0.145067  0.499724  1
  O  O14  1  0.645151  0.645066  0.999724  1
  O  O15  1  0.854822  0.499927  0.144919  1
  O  O16  1  0.354821  0.999927  0.644919  1
  O  O17  1  0.499948  0.145086  0.854626  1
  O  O18  1  0.999948  0.645086  0.354627  1
  O  O19  1  0.145129  0.854744  0.499793  1
  O  O20  1  0.645130  0.354745  0.999793  1
  O  O21  1  0.499964  0.145050  0.144931  1
  O  O22  1  0.999964  0.645050  0.644931  1
  O  O23  1  0.854810  0.854765  0.499809  1
  O  O24  1  0.354810  0.354766  0.999809  1
  Si  Si25  1  0.249980  0.499934  0.999762  1
  Si  Si26  1  0.749980  0.999935  0.499762  1
  Si  Si27  1  0.999999  0.249918  0.499729  1
  Si  Si28  1  0.499998  0.749919  0.999730  1
  Si  Si29  1  0.499982  0.999885  0.249758  1
  Si  Si30  1  0.999981  0.499886  0.749759  1
  Si  Si31  1  0.499979  0.999947  0.749763  1
  Si  Si32  1  0.999978  0.499947  0.249762  1
  Si  Si33  1  0.749981  0.499898  0.999759  1
  Si  Si34  1  0.249979  0.999898  0.499759  1
  Si  Si35  1  0.499962  0.249914  0.999792  1
  Si  Si36  1  0.999963  0.749914  0.499792  1
