# generated using pymatgen
data_SiO2
_symmetry_space_group_name_H-M   'P 1'
_cell_length_a   14.62949853
_cell_length_b   27.69432231
_cell_length_c   8.29678981
_cell_angle_alpha   90.00000000
_cell_angle_beta   90.00000000
_cell_angle_gamma   90.00000000
_symmetry_Int_Tables_number   1
_chemical_formula_structural   SiO2
_chemical_formula_sum   'Si64 O128'
_cell_volume   3361.47797405
_cell_formula_units_Z   64
loop_
 _symmetry_equiv_pos_site_id
 _symmetry_equiv_pos_as_xyz
  1  'x, y, z'
loop_
 _atom_site_type_symbol
 _atom_site_label
 _atom_site_symmetry_multiplicity
 _atom_site_fract_x
 _atom_site_fract_y
 _atom_site_fract_z
 _atom_site_occupancy
  O  O1  1  0.000019  0.794953  0.750065  1
  O  O2  1  0.500053  0.294954  0.250047  1
  O  O3  1  0.000049  0.204929  0.750069  1
  O  O4  1  0.500017  0.704929  0.250054  1
  O  O5  1  0.000049  0.204930  0.250060  1
  O  O6  1  0.500017  0.704928  0.750088  1
  O  O7  1  0.000019  0.794954  0.250077  1
  O  O8  1  0.500053  0.294954  0.750083  1
  O  O9  1  0.834388  0.820109  0.769739  1
  O  O10  1  0.334422  0.320109  0.269765  1
  O  O11  1  0.165681  0.179774  0.769730  1
  O  O12  1  0.665648  0.679775  0.269772  1
  O  O13  1  0.665699  0.320105  0.230470  1
  O  O14  1  0.165666  0.820102  0.730439  1
  O  O15  1  0.334371  0.679779  0.230475  1
  O  O16  1  0.834404  0.179781  0.730431  1
  O  O17  1  0.165681  0.179774  0.230399  1
  O  O18  1  0.665648  0.679774  0.730370  1
  O  O19  1  0.834388  0.820109  0.230403  1
  O  O20  1  0.334423  0.320108  0.730363  1
  O  O21  1  0.334372  0.679778  0.769666  1
  O  O22  1  0.834404  0.179781  0.269699  1
  O  O23  1  0.665699  0.320104  0.769660  1
  O  O24  1  0.165665  0.820102  0.269702  1
  O  O25  1  0.880976  0.730643  0.742180  1
  O  O26  1  0.381013  0.230644  0.242158  1
  O  O27  1  0.119093  0.269239  0.742168  1
  O  O28  1  0.619056  0.769239  0.242163  1
  O  O29  1  0.619071  0.230639  0.257914  1
  O  O30  1  0.119034  0.730638  0.757940  1
  O  O31  1  0.380999  0.769244  0.257921  1
  O  O32  1  0.881035  0.269245  0.757926  1
  O  O33  1  0.119092  0.269240  0.257962  1
  O  O34  1  0.619057  0.769238  0.757978  1
  O  O35  1  0.880976  0.730643  0.257961  1
  O  O36  1  0.381013  0.230644  0.757972  1
  O  O37  1  0.380999  0.769244  0.742222  1
  O  O38  1  0.881035  0.269245  0.242202  1
  O  O39  1  0.619071  0.230639  0.742214  1
  O  O40  1  0.119034  0.730639  0.242203  1
  O  O41  1  0.896713  0.787918  0.500071  1
  O  O42  1  0.396734  0.287929  0.000065  1
  O  O43  1  0.103348  0.211962  0.500065  1
  O  O44  1  0.603336  0.711954  0.000071  1
  O  O45  1  0.603331  0.287894  0.500064  1
  O  O46  1  0.103311  0.787904  0.000071  1
  O  O47  1  0.396739  0.711989  0.500071  1
  O  O48  1  0.896750  0.211981  0.000065  1
  O  O49  1  0.822162  0.644416  0.244751  1
  O  O50  1  0.322197  0.144417  0.744668  1
  O  O51  1  0.177908  0.355467  0.244746  1
  O  O52  1  0.677872  0.855465  0.744673  1
  O  O53  1  0.677881  0.144416  0.755516  1
  O  O54  1  0.177846  0.644416  0.255605  1
  O  O55  1  0.322189  0.855467  0.755521  1
  O  O56  1  0.822224  0.355468  0.255600  1
  O  O57  1  0.177908  0.355467  0.755383  1
  O  O58  1  0.677872  0.855466  0.255469  1
  O  O59  1  0.822162  0.644415  0.755390  1
  O  O60  1  0.322197  0.144418  0.255461  1
  O  O61  1  0.322189  0.855467  0.244620  1
  O  O62  1  0.822224  0.355467  0.744530  1
  O  O63  1  0.677880  0.144416  0.244614  1
  O  O64  1  0.177846  0.644416  0.744536  1
  O  O65  1  0.999994  0.665355  0.249988  1
  O  O66  1  0.500034  0.165356  0.750017  1
  O  O67  1  0.000076  0.334528  0.249972  1
  O  O68  1  0.500035  0.834527  0.750024  1
  O  O69  1  0.000076  0.334528  0.750156  1
  O  O70  1  0.500035  0.834527  0.250118  1
  O  O71  1  0.999994  0.665355  0.750154  1
  O  O72  1  0.500034  0.165356  0.250112  1
  O  O73  1  0.903187  0.682871  0.000071  1
  O  O74  1  0.403271  0.182886  0.500065  1
  O  O75  1  0.096889  0.317009  0.000065  1
  O  O76  1  0.596798  0.816996  0.500071  1
  O  O77  1  0.596720  0.182865  0.000064  1
  O  O78  1  0.096635  0.682880  0.500071  1
  O  O79  1  0.403348  0.817018  0.000071  1
  O  O80  1  0.903442  0.317006  0.500064  1
  O  O81  1  0.728249  0.629203  0.500070  1
  O  O82  1  0.228358  0.129248  0.000065  1
  O  O83  1  0.271822  0.370680  0.500065  1
  O  O84  1  0.771710  0.870636  0.000070  1
  O  O85  1  0.771669  0.129291  0.500065  1
  O  O86  1  0.271555  0.629338  0.000070  1
  O  O87  1  0.228399  0.870591  0.500071  1
  O  O88  1  0.728516  0.370544  0.000065  1
  O  O89  1  0.673201  0.589489  0.759336  1
  O  O90  1  0.173228  0.089479  0.259158  1
  O  O91  1  0.326869  0.410393  0.759335  1
  O  O92  1  0.826841  0.910404  0.259161  1
  O  O93  1  0.826853  0.089477  0.241111  1
  O  O94  1  0.326826  0.589463  0.741306  1
  O  O95  1  0.173216  0.910406  0.241116  1
  O  O96  1  0.673245  0.410420  0.741302  1
  O  O97  1  0.326869  0.410394  0.240798  1
  O  O98  1  0.826841  0.910404  0.740978  1
  O  O99  1  0.673201  0.589490  0.240802  1
  O  O100  1  0.173229  0.089479  0.740975  1
  O  O101  1  0.173216  0.910406  0.759024  1
  O  O102  1  0.673244  0.410420  0.258828  1
  O  O103  1  0.826853  0.089477  0.759020  1
  O  O104  1  0.326826  0.589463  0.258835  1
  O  O105  1  0.500026  0.565259  0.750825  1
  O  O106  1  0.000041  0.065261  0.250283  1
  O  O107  1  0.500044  0.434623  0.750822  1
  O  O108  1  0.000029  0.934623  0.250285  1
  O  O109  1  0.500044  0.434624  0.249312  1
  O  O110  1  0.000029  0.934622  0.749852  1
  O  O111  1  0.500026  0.565260  0.249313  1
  O  O112  1  0.000041  0.065260  0.749850  1
  O  O113  1  0.407513  0.551172  0.500069  1
  O  O114  1  0.907184  0.050841  0.000067  1
  O  O115  1  0.592559  0.448711  0.500067  1
  O  O116  1  0.092885  0.949041  0.000069  1
  O  O117  1  0.093180  0.050582  0.500067  1
  O  O118  1  0.593526  0.550257  0.000069  1
  O  O119  1  0.906889  0.949301  0.500069  1
  O  O120  1  0.406545  0.449626  0.000066  1
  O  O121  1  0.380368  0.499924  0.748982  1
  O  O122  1  0.880363  0.999939  0.249762  1
  O  O123  1  0.619702  0.499958  0.748983  1
  O  O124  1  0.119706  0.999945  0.249761  1
  O  O125  1  0.619702  0.499959  0.251154  1
  O  O126  1  0.119706  0.999944  0.750374  1
  O  O127  1  0.380368  0.499924  0.251152  1
  O  O128  1  0.880363  0.999938  0.750375  1
  Si  Si129  1  0.901131  0.783773  0.688034  1
  Si  Si130  1  0.401160  0.283777  0.188027  1
  Si  Si131  1  0.098936  0.216109  0.688028  1
  Si  Si132  1  0.598909  0.716106  0.188034  1
  Si  Si133  1  0.598934  0.283767  0.312100  1
  Si  Si134  1  0.098904  0.783769  0.812107  1
  Si  Si135  1  0.401136  0.716116  0.312106  1
  Si  Si136  1  0.901163  0.216115  0.812100  1
  Si  Si137  1  0.098936  0.216109  0.312101  1
  Si  Si138  1  0.598910  0.716106  0.812108  1
  Si  Si139  1  0.901130  0.783773  0.312108  1
  Si  Si140  1  0.401161  0.283776  0.812102  1
  Si  Si141  1  0.401136  0.716116  0.688036  1
  Si  Si142  1  0.901163  0.216115  0.188029  1
  Si  Si143  1  0.598934  0.283767  0.688029  1
  Si  Si144  1  0.098904  0.783769  0.188035  1
  Si  Si145  1  0.901399  0.679008  0.187647  1
  Si  Si146  1  0.401449  0.179012  0.687639  1
  Si  Si147  1  0.098672  0.320874  0.187641  1
  Si  Si148  1  0.598621  0.820870  0.687645  1
  Si  Si149  1  0.598605  0.179003  0.812491  1
  Si  Si150  1  0.098555  0.679007  0.312500  1
  Si  Si151  1  0.401465  0.820879  0.812497  1
  Si  Si152  1  0.901516  0.320877  0.312494  1
  Si  Si153  1  0.098672  0.320874  0.812488  1
  Si  Si154  1  0.598620  0.820870  0.312497  1
  Si  Si155  1  0.901399  0.679008  0.812494  1
  Si  Si156  1  0.401449  0.179013  0.312491  1
  Si  Si157  1  0.401464  0.820880  0.187645  1
  Si  Si158  1  0.901516  0.320877  0.687635  1
  Si  Si159  1  0.598605  0.179004  0.187638  1
  Si  Si160  1  0.098555  0.679007  0.687642  1
  Si  Si161  1  0.723491  0.634247  0.686759  1
  Si  Si162  1  0.223540  0.134256  0.186755  1
  Si  Si163  1  0.276579  0.365636  0.686754  1
  Si  Si164  1  0.776529  0.865627  0.186760  1
  Si  Si165  1  0.776531  0.134271  0.313375  1
  Si  Si166  1  0.276482  0.634278  0.813380  1
  Si  Si167  1  0.223538  0.865613  0.313381  1
  Si  Si168  1  0.723589  0.365604  0.813374  1
  Si  Si169  1  0.276579  0.365636  0.313376  1
  Si  Si170  1  0.776529  0.865627  0.813381  1
  Si  Si171  1  0.723491  0.634247  0.313382  1
  Si  Si172  1  0.223540  0.134256  0.813375  1
  Si  Si173  1  0.223538  0.865612  0.686760  1
  Si  Si174  1  0.723588  0.365605  0.186756  1
  Si  Si175  1  0.776531  0.134270  0.686755  1
  Si  Si176  1  0.276482  0.634278  0.186761  1
  Si  Si177  1  0.401342  0.552359  0.686988  1
  Si  Si178  1  0.901276  0.052298  0.186990  1
  Si  Si179  1  0.598728  0.447524  0.686987  1
  Si  Si180  1  0.098793  0.947585  0.186992  1
  Si  Si181  1  0.098869  0.052247  0.313142  1
  Si  Si182  1  0.598934  0.552185  0.813142  1
  Si  Si183  1  0.901201  0.947636  0.313144  1
  Si  Si184  1  0.401137  0.447698  0.813140  1
  Si  Si185  1  0.598728  0.447524  0.313147  1
  Si  Si186  1  0.098793  0.947585  0.813146  1
  Si  Si187  1  0.401342  0.552359  0.313149  1
  Si  Si188  1  0.901276  0.052298  0.813144  1
  Si  Si189  1  0.901201  0.947636  0.686994  1
  Si  Si190  1  0.401137  0.447698  0.186993  1
  Si  Si191  1  0.098869  0.052247  0.686992  1
  Si  Si192  1  0.598934  0.552185  0.186995  1
