# generated using pymatgen
data_SiO2
_symmetry_space_group_name_H-M   'P 1'
_cell_length_a   25.39690429
_cell_length_b   5.08082609
_cell_length_c   15.04223987
_cell_angle_alpha   90.00000000
_cell_angle_beta   103.89000000
_cell_angle_gamma   90.00000000
_symmetry_Int_Tables_number   1
_chemical_formula_structural   SiO2
_chemical_formula_sum   'Si32 O64'
_cell_volume   1884.2510963
_cell_formula_units_Z   32
loop_
 _symmetry_equiv_pos_site_id
 _symmetry_equiv_pos_as_xyz
  1  'x, y, z'
loop_
 _atom_site_type_symbol
 _atom_site_label
 _atom_site_symmetry_multiplicity
 _atom_site_fract_x
 _atom_site_fract_y
 _atom_site_fract_z
 _atom_site_occupancy
  O  O1  1  0.488346  0.499882  0.613832  1
  O  O2  1  0.988345  0.000031  0.613808  1
  O  O3  1  0.511734  0.500238  0.386247  1
  O  O4  1  0.011747  0.999285  0.386250  1
  O  O5  1  0.576097  0.251039  0.691414  1
  O  O6  1  0.076622  0.748380  0.691194  1
  O  O7  1  0.423384  0.249073  0.308900  1
  O  O8  1  0.923972  0.750682  0.308616  1
  O  O9  1  0.423989  0.749259  0.308663  1
  O  O10  1  0.923436  0.250865  0.308878  1
  O  O11  1  0.576679  0.751210  0.691210  1
  O  O12  1  0.076131  0.248546  0.691471  1
  O  O13  1  0.570104  0.501755  0.544069  1
  O  O14  1  0.070113  0.997839  0.544086  1
  O  O15  1  0.429985  0.498377  0.456015  1
  O  O16  1  0.929986  0.001458  0.455979  1
  O  O17  1  0.603226  0.750261  0.420798  1
  O  O18  1  0.102468  0.251468  0.421536  1
  O  O19  1  0.397582  0.751797  0.578524  1
  O  O20  1  0.896904  0.250481  0.579209  1
  O  O21  1  0.396897  0.249439  0.579251  1
  O  O22  1  0.897583  0.748128  0.578514  1
  O  O23  1  0.602445  0.247913  0.421532  1
  O  O24  1  0.103230  0.749120  0.420840  1
  O  O25  1  0.671874  0.005119  0.347430  1
  O  O26  1  0.171905  0.494456  0.347490  1
  O  O27  1  0.328230  0.994711  0.652661  1
  O  O28  1  0.828223  0.505113  0.652618  1
  O  O29  1  0.762544  0.225096  0.350146  1
  O  O30  1  0.254489  0.772641  0.345067  1
  O  O31  1  0.245167  0.269179  0.654746  1
  O  O32  1  0.737698  0.726473  0.650005  1
  O  O33  1  0.237780  0.772706  0.650061  1
  O  O34  1  0.745244  0.230000  0.654709  1
  O  O35  1  0.754685  0.728604  0.345180  1
  O  O36  1  0.262748  0.276129  0.350280  1
  O  O37  1  0.714200  0.998341  0.201745  1
  O  O38  1  0.214197  0.501791  0.201784  1
  O  O39  1  0.285889  0.000849  0.798353  1
  O  O40  1  0.785887  0.498864  0.798304  1
  O  O41  1  0.641080  0.001153  0.827603  1
  O  O42  1  0.141065  0.498889  0.827633  1
  O  O43  1  0.359005  0.999415  0.172483  1
  O  O44  1  0.859018  0.500514  0.172453  1
  O  O45  1  0.658255  0.006538  0.669751  1
  O  O46  1  0.158240  0.493355  0.669777  1
  O  O47  1  0.341793  0.993509  0.330295  1
  O  O48  1  0.841821  0.506159  0.330286  1
  O  O49  1  0.682025  0.001159  0.518332  1
  O  O50  1  0.182030  0.498252  0.518384  1
  O  O51  1  0.318025  0.998983  0.481740  1
  O  O52  1  0.818040  0.500994  0.481705  1
  O  O53  1  0.698323  0.999388  0.010627  1
  O  O54  1  0.198310  0.499688  0.010660  1
  O  O55  1  0.301757  0.999651  0.989460  1
  O  O56  1  0.801771  0.499548  0.989426  1
  O  O57  1  0.727006  0.746802  0.883844  1
  O  O58  1  0.227343  0.248611  0.884174  1
  O  O59  1  0.273018  0.747016  0.115878  1
  O  O60  1  0.772663  0.249304  0.116245  1
  O  O61  1  0.272167  0.247119  0.116355  1
  O  O62  1  0.772548  0.749394  0.115935  1
  O  O63  1  0.727976  0.246882  0.884094  1
  O  O64  1  0.227608  0.748701  0.883813  1
  Si  Si65  1  0.551917  0.501456  0.636355  1
  Si  Si66  1  0.051915  0.998261  0.636362  1
  Si  Si67  1  0.448163  0.498818  0.363725  1
  Si  Si68  1  0.948176  0.001026  0.363699  1
  Si  Si69  1  0.572469  0.500626  0.441304  1
  Si  Si70  1  0.072479  0.998811  0.441320  1
  Si  Si71  1  0.427612  0.499255  0.558773  1
  Si  Si72  1  0.927614  0.000641  0.558739  1
  Si  Si73  1  0.724572  0.990262  0.309978  1
  Si  Si74  1  0.224586  0.510304  0.310020  1
  Si  Si75  1  0.275526  0.008334  0.690123  1
  Si  Si76  1  0.775520  0.491099  0.690072  1
  Si  Si77  1  0.611870  0.001840  0.721592  1
  Si  Si78  1  0.111856  0.497921  0.721621  1
  Si  Si79  1  0.388203  0.998461  0.278503  1
  Si  Si80  1  0.888219  0.501392  0.278470  1
  Si  Si81  1  0.639191  0.000823  0.424212  1
  Si  Si82  1  0.139207  0.498602  0.424251  1
  Si  Si83  1  0.360883  0.999051  0.575840  1
  Si  Si84  1  0.860888  0.500852  0.575813  1
  Si  Si85  1  0.706880  0.990974  0.623814  1
  Si  Si86  1  0.206878  0.508438  0.623864  1
  Si  Si87  1  0.293185  0.010431  0.376256  1
  Si  Si88  1  0.793196  0.490132  0.376222  1
  Si  Si89  1  0.696305  0.998439  0.903863  1
  Si  Si90  1  0.196292  0.499255  0.903895  1
  Si  Si91  1  0.303775  0.998714  0.096223  1
  Si  Si92  1  0.803790  0.499455  0.096190  1
  Si  Si93  1  0.736315  0.999429  0.111858  1
  Si  Si94  1  0.236303  0.498760  0.111893  1
  Si  Si95  1  0.263766  0.999263  0.888230  1
  Si  Si96  1  0.763777  0.498467  0.888197  1
