# generated using pymatgen
data_SiO2
_symmetry_space_group_name_H-M   'P 1'
_cell_length_a   11.23527408
_cell_length_b   5.05415245
_cell_length_c   14.13088993
_cell_angle_alpha   90.00000000
_cell_angle_beta   100.96000000
_cell_angle_gamma   90.00000000
_symmetry_Int_Tables_number   1
_chemical_formula_structural   SiO2
_chemical_formula_sum   'Si14 O28'
_cell_volume   787.783579918
_cell_formula_units_Z   14
loop_
 _symmetry_equiv_pos_site_id
 _symmetry_equiv_pos_as_xyz
  1  'x, y, z'
loop_
 _atom_site_type_symbol
 _atom_site_label
 _atom_site_symmetry_multiplicity
 _atom_site_fract_x
 _atom_site_fract_y
 _atom_site_fract_z
 _atom_site_occupancy
  O  O1  1  0.295897  0.261100  0.294927  1
  O  O2  1  0.703794  0.761088  0.704959  1
  O  O3  1  0.321635  0.477716  0.136713  1
  O  O4  1  0.678290  0.978378  0.863078  1
  O  O5  1  0.697337  0.480239  0.854115  1
  O  O6  1  0.302534  0.979553  0.145957  1
  O  O7  1  0.116601  0.268006  0.141996  1
  O  O8  1  0.883282  0.768215  0.857804  1
  O  O9  1  0.378105  0.253467  0.495911  1
  O  O10  1  0.621703  0.753497  0.504019  1
  O  O11  1  0.466222  0.972953  0.378035  1
  O  O12  1  0.534380  0.470239  0.621804  1
  O  O13  1  0.507806  0.969120  0.621914  1
  O  O14  1  0.491190  0.471786  0.377862  1
  O  O15  1  0.365778  0.267066  0.692384  1
  O  O16  1  0.634259  0.766935  0.307565  1
  O  O17  1  0.666326  0.261867  0.008528  1
  O  O18  1  0.333582  0.762030  0.991439  1
  O  O19  1  0.492559  0.271239  0.861058  1
  O  O20  1  0.507371  0.770760  0.138902  1
  O  O21  1  0.288270  0.500891  0.835148  1
  O  O22  1  0.711794  0.999894  0.164638  1
  O  O23  1  0.700852  0.499560  0.169395  1
  O  O24  1  0.298967  0.000540  0.830690  1
  O  O25  1  0.878480  0.276589  0.105306  1
  O  O26  1  0.121437  0.776709  0.894592  1
  O  O27  1  0.997216  0.985291  0.009015  1
  O  O28  1  0.002621  0.485299  0.990805  1
  Si  Si29  1  0.256921  0.247826  0.180891  1
  Si  Si30  1  0.742930  0.748261  0.818977  1
  Si  Si31  1  0.400413  0.242215  0.387672  1
  Si  Si32  1  0.599325  0.740766  0.612232  1
  Si  Si33  1  0.439045  0.240648  0.607619  1
  Si  Si34  1  0.560835  0.742092  0.392293  1
  Si  Si35  1  0.632549  0.247946  0.896184  1
  Si  Si36  1  0.367371  0.747510  0.103775  1
  Si  Si37  1  0.359044  0.260763  0.803464  1
  Si  Si38  1  0.640907  0.760129  0.196467  1
  Si  Si39  1  0.741487  0.259649  0.113821  1
  Si  Si40  1  0.258456  0.760253  0.886134  1
  Si  Si41  1  0.997370  0.254428  0.063145  1
  Si  Si42  1  0.002503  0.754447  0.936680  1
