# generated using pymatgen
data_SiO2
_symmetry_space_group_name_H-M   'P 1'
_cell_length_a   17.25289407
_cell_length_b   17.25278161
_cell_length_c   41.58000348
_cell_angle_alpha   90.00000000
_cell_angle_beta   90.00000000
_cell_angle_gamma   120.00000000
_symmetry_Int_Tables_number   1
_chemical_formula_structural   SiO2
_chemical_formula_sum   'Si144 O288'
_cell_volume   10718.554828
_cell_formula_units_Z   144
loop_
 _symmetry_equiv_pos_site_id
 _symmetry_equiv_pos_as_xyz
  1  'x, y, z'
loop_
 _atom_site_type_symbol
 _atom_site_label
 _atom_site_symmetry_multiplicity
 _atom_site_fract_x
 _atom_site_fract_y
 _atom_site_fract_z
 _atom_site_occupancy
  O  O1  1  0.242447  0.484856  0.210606  1
  O  O2  1  0.100609  0.413726  0.103466  1
  O  O3  1  0.313249  0.413779  0.103464  1
  O  O4  1  0.353471  0.433930  0.229883  1
  O  O5  1  0.080477  0.433859  0.229915  1
  O  O6  1  0.128514  0.461758  0.166688  1
  O  O7  1  0.333356  0.461863  0.166679  1
  Si  Si8  1  0.154807  0.488644  0.325915  1
  Si  Si9  1  0.334055  0.488630  0.325907  1
  Si  Si10  1  0.391162  0.430541  0.264369  1
  Si  Si11  1  0.039462  0.430530  0.264411  1
  O  O12  1  0.343097  0.457072  0.291127  1
  O  O13  1  0.114124  0.457085  0.291145  1
  O  O14  1  0.123783  0.447334  0.042225  1
  O  O15  1  0.323680  0.447332  0.042221  1
  O  O16  1  0.408143  0.303148  0.017097  1
  O  O17  1  0.696835  0.104832  0.017081  1
  O  O18  1  0.408152  0.104826  0.017091  1
  O  O19  1  0.895144  0.303147  0.017093  1
  O  O20  1  0.258817  0.030173  0.316232  1
  O  O21  1  0.970093  0.228459  0.316280  1
  O  O22  1  0.258822  0.228460  0.316274  1
  O  O23  1  0.771900  0.030070  0.316288  1
  O  O24  1  0.002879  0.292102  0.057746  1
  Si  Si25  1  0.332770  0.487949  0.007441  1
  Si  Si26  1  0.155328  0.487965  0.007445  1
  O  O27  1  0.289367  0.292118  0.057754  1
  O  O28  1  0.663946  0.041262  0.275559  1
  O  O29  1  0.377419  0.336181  0.275593  1
  O  O30  1  0.958891  0.336173  0.275660  1
  O  O31  1  0.377389  0.041151  0.275512  1
  Si  Si32  1  0.097256  0.372705  0.068971  1
  Si  Si33  1  0.275584  0.372718  0.068974  1
  O  O34  1  0.855867  0.144095  0.033799  1
  O  O35  1  0.288392  0.144115  0.033816  1
  O  O36  1  0.811026  0.189074  0.299566  1
  O  O37  1  0.378544  0.189244  0.299493  1
  O  O38  1  0.173501  0.346879  0.067762  1
  Si  Si39  1  0.154453  0.487522  0.129932  1
  Si  Si40  1  0.333175  0.487589  0.129921  1
  Si  Si41  1  0.333538  0.487821  0.203432  1
  Si  Si42  1  0.154257  0.487707  0.203444  1
  Si  Si43  1  0.935715  0.243137  0.028666  1
  Si  Si44  1  0.307572  0.064264  0.028666  1
  Si  Si45  1  0.756829  0.064243  0.028655  1
  Si  Si46  1  0.307567  0.243148  0.028676  1
  Si  Si47  1  0.731237  0.089985  0.304658  1
  Si  Si48  1  0.359389  0.269099  0.304685  1
  Si  Si49  1  0.910012  0.268983  0.304741  1
  Si  Si50  1  0.359345  0.090191  0.304605  1
  O  O51  1  0.237412  0.474596  0.331607  1
  O  O52  1  0.666987  0.082585  0.333328  1
  O  O53  1  0.416433  0.082810  0.333205  1
  O  O54  1  0.416338  0.333488  0.333324  1
  O  O55  1  0.250654  0.250550  0.000020  1
  O  O56  1  0.000040  0.250554  0.000012  1
  O  O57  1  0.091256  0.181152  0.456070  1
  O  O58  1  0.182649  0.090891  0.543945  1
  O  O59  1  0.909566  0.090928  0.543929  1
  O  O60  1  0.157790  0.078253  0.460519  1
  O  O61  1  0.921851  0.078352  0.460476  1
  O  O62  1  0.079005  0.156719  0.539562  1
  O  O63  1  0.253753  0.020225  0.436753  1
  O  O64  1  0.980606  0.232656  0.436793  1
  O  O65  1  0.253250  0.232572  0.436786  1
  O  O66  1  0.767604  0.020132  0.436814  1
  O  O67  1  0.233221  0.252767  0.563219  1
  O  O68  1  0.020715  0.252818  0.563176  1
  Si  Si69  1  0.822261  0.000645  0.340823  1
  O  O70  1  0.000678  0.204632  0.499986  1
  O  O71  1  0.205284  0.204598  0.500009  1
  Si  Si72  1  0.821457  0.000132  0.463267  1
  O  O73  1  0.192461  0.096016  0.664975  1
  Si  Si74  1  0.178966  0.000612  0.340760  1
  O  O75  1  0.210041  0.219246  0.624462  1
  O  O76  1  0.010078  0.219251  0.624415  1
  O  O77  1  0.219714  0.009737  0.375521  1
  O  O78  1  0.990720  0.209641  0.375546  1
  O  O79  1  0.219553  0.209595  0.375543  1
  O  O80  1  0.790742  0.009820  0.375588  1
  O  O81  1  0.076331  0.151872  0.660941  1
  O  O82  1  0.152203  0.075951  0.339038  1
  O  O83  1  0.924343  0.075998  0.339053  1
  O  O84  1  0.363636  0.438291  0.350404  1
  O  O85  1  0.074953  0.438249  0.350430  1
  O  O86  1  0.438522  0.074645  0.649686  1
  O  O87  1  0.925303  0.363298  0.649623  1
  O  O88  1  0.636860  0.074819  0.649676  1
  O  O89  1  0.438492  0.363444  0.649623  1
  O  O90  1  0.375071  0.044244  0.390947  1
  O  O91  1  0.956465  0.330529  0.391145  1
  O  O92  1  0.374752  0.330599  0.391054  1
  O  O93  1  0.669979  0.044290  0.391102  1
  O  O94  1  0.330871  0.374439  0.608936  1
  O  O95  1  0.044434  0.374466  0.608888  1
  O  O96  1  0.904334  0.096003  0.664895  1
  Si  Si97  1  0.999696  0.178096  0.340759  1
  O  O98  1  0.096325  0.192101  0.335047  1
  O  O99  1  0.522705  0.477703  0.367168  1
  O  O100  1  0.522921  0.045057  0.367044  1
  O  O101  1  0.955232  0.477471  0.367187  1
  O  O102  1  0.320182  0.159979  0.401010  1
  O  O103  1  0.840656  0.159994  0.401174  1
  O  O104  1  0.160323  0.319691  0.598908  1
  Si  Si105  1  0.178913  0.178039  0.340767  1
  Si  Si106  1  0.000369  0.178611  0.463235  1
  Si  Si107  1  0.179552  0.178529  0.463261  1
  O  O108  1  0.917426  0.333235  0.333423  1
  Si  Si109  1  0.179427  0.178883  0.536773  1
  Si  Si110  1  0.000774  0.178917  0.536751  1
  Si  Si111  1  0.423926  0.025946  0.361859  1
  Si  Si112  1  0.974419  0.397614  0.362055  1
  Si  Si113  1  0.423713  0.397801  0.361981  1
  Si  Si114  1  0.602712  0.025742  0.361994  1
  Si  Si115  1  0.397986  0.423486  0.638023  1
  Si  Si116  1  0.025873  0.423208  0.637984  1
  Si  Si117  1  0.294245  0.236147  0.402268  1
  Si  Si118  1  0.764299  0.057964  0.402343  1
  Si  Si119  1  0.942761  0.236153  0.402347  1
  Si  Si120  1  0.294469  0.057934  0.402224  1
  Si  Si121  1  0.058261  0.293896  0.597675  1
  Si  Si122  1  0.236541  0.293826  0.597704  1
  Si  Si123  1  0.178430  0.178623  0.659242  1
  Si  Si124  1  0.000973  0.178602  0.659187  1
  O  O125  1  0.082786  0.415872  0.666650  1
  O  O126  1  0.333591  0.416083  0.666652  1
  Si  Si127  1  0.180055  0.000084  0.463281  1
  O  O128  1  0.484980  0.242461  0.789444  1
  O  O129  1  0.757785  0.242424  0.789429  1
  O  O130  1  0.848555  0.424255  0.877272  1
  O  O131  1  0.575805  0.424258  0.877276  1
  O  O132  1  0.575908  0.151580  0.877300  1
  O  O133  1  0.588383  0.176440  0.793837  1
  O  O134  1  0.823773  0.411803  0.793816  1
  O  O135  1  0.588245  0.411830  0.793831  1
  O  O136  1  0.745195  0.490294  0.872883  1
  O  O137  1  0.509794  0.254880  0.872900  1
  O  O138  1  0.745293  0.254884  0.872885  1
  O  O139  1  0.434110  0.080498  0.770188  1
  O  O140  1  0.919762  0.353479  0.770149  1
  O  O141  1  0.646693  0.080432  0.770184  1
  O  O142  1  0.434016  0.353447  0.770130  1
  O  O143  1  0.413882  0.313206  0.896575  1
  O  O144  1  0.686921  0.100622  0.896569  1
  O  O145  1  0.413929  0.100595  0.896579  1
  O  O146  1  0.899536  0.313300  0.896571  1
  O  O147  1  0.462047  0.128593  0.833376  1
  O  O148  1  0.871630  0.333375  0.833352  1
  O  O149  1  0.666814  0.128573  0.833367  1
  O  O150  1  0.461919  0.333328  0.833357  1
  O  O151  1  0.292222  0.002797  0.942277  1
  O  O152  1  0.710936  0.002895  0.942250  1
  O  O153  1  0.447446  0.323593  0.957820  1
  O  O154  1  0.676462  0.123679  0.957807  1
  O  O155  1  0.447442  0.123689  0.957819  1
  O  O156  1  0.876357  0.323681  0.957820  1
  O  O157  1  0.457204  0.113962  0.708951  1
  O  O158  1  0.886241  0.343029  0.708920  1
  O  O159  1  0.657137  0.113928  0.708960  1
  O  O160  1  0.457225  0.342980  0.708901  1
  O  O161  1  0.742653  0.485208  0.994337  1
  O  O162  1  0.514792  0.257310  0.994337  1
  O  O163  1  0.742677  0.257313  0.994320  1
  O  O164  1  0.590904  0.181360  0.672461  1
  O  O165  1  0.818778  0.409233  0.672417  1
  O  O166  1  0.590897  0.409227  0.672398  1
  O  O167  1  0.228712  0.258573  0.683731  1
  O  O168  1  0.030400  0.258438  0.683698  1
  O  O169  1  0.104955  0.408053  0.982949  1
  O  O170  1  0.303248  0.408039  0.982943  1
  O  O171  1  0.041501  0.377502  0.724428  1
  O  O172  1  0.336322  0.377347  0.724388  1
  O  O173  1  0.292230  0.289275  0.942285  1
  O  O174  1  0.997250  0.289358  0.942282  1
  O  O175  1  0.762910  0.237227  0.668508  1
  Si  Si176  1  0.488805  0.333866  0.674132  1
  O  O177  1  0.474745  0.237196  0.668452  1
  O  O178  1  0.570673  0.141163  0.998274  1
  O  O179  1  0.189329  0.378307  0.700426  1
  O  O180  1  0.144226  0.288290  0.966216  1
  O  O181  1  0.986597  0.493229  0.734470  1
  O  O182  1  0.506934  0.493178  0.734416  1
  O  O183  1  0.506939  0.013527  0.734500  1
  O  O184  1  0.346996  0.173431  0.932267  1
  O  O185  1  0.826668  0.173525  0.932262  1
  Si  Si186  1  0.487996  0.154365  0.796624  1
  Si  Si187  1  0.845905  0.333532  0.796592  1
  Si  Si188  1  0.666672  0.154326  0.796611  1
  Si  Si189  1  0.487867  0.333521  0.796602  1
  Si  Si190  1  0.487683  0.333163  0.870112  1
  Si  Si191  1  0.666976  0.154505  0.870119  1
  Si  Si192  1  0.487760  0.154508  0.870132  1
  Si  Si193  1  0.845667  0.333203  0.870103  1
  Si  Si194  1  0.090254  0.359031  0.695314  1
  Si  Si195  1  0.269203  0.359155  0.695292  1
  Si  Si196  1  0.243254  0.307462  0.971363  1
  Si  Si197  1  0.064384  0.307482  0.971365  1
  Si  Si198  1  0.430682  0.391108  0.735630  1
  Si  Si199  1  0.608994  0.039302  0.735705  1
  Si  Si200  1  0.430716  0.039387  0.735709  1
  Si  Si201  1  0.960863  0.391182  0.735665  1
  Si  Si202  1  0.372832  0.097183  0.931063  1
  Si  Si203  1  0.902892  0.275614  0.931061  1
  Si  Si204  1  0.724623  0.097244  0.931052  1
  Si  Si205  1  0.372837  0.275509  0.931064  1
  Si  Si206  1  0.488056  0.332668  0.992600  1
  Si  Si207  1  0.667328  0.155220  0.992579  1
  Si  Si208  1  0.488069  0.155221  0.992595  1
  Si  Si209  1  0.844763  0.332689  0.992599  1
  Si  Si210  1  0.488804  0.154603  0.674173  1
  Si  Si211  1  0.845523  0.333885  0.674161  1
  Si  Si212  1  0.666264  0.154629  0.674197  1
  O  O213  1  0.858781  0.429326  0.998305  1
  O  O214  1  0.570650  0.429324  0.998299  1
  O  O215  1  0.151476  0.575641  0.122763  1
  O  O216  1  0.424264  0.575720  0.122756  1
  O  O217  1  0.424283  0.848368  0.122734  1
  O  O218  1  0.515328  0.757564  0.210606  1
  O  O219  1  0.242443  0.757441  0.210590  1
  O  O220  1  0.254849  0.509639  0.127150  1
  O  O221  1  0.490379  0.745093  0.127153  1
  O  O222  1  0.254859  0.745022  0.127132  1
  O  O223  1  0.411881  0.823500  0.206194  1
  O  O224  1  0.176291  0.588072  0.206211  1
  O  O225  1  0.411889  0.588186  0.206215  1
  O  O226  1  0.586223  0.686703  0.103469  1
  O  O227  1  0.313257  0.899300  0.103447  1
  O  O228  1  0.586252  0.899348  0.103461  1
  O  O229  1  0.100614  0.686695  0.103462  1
  O  O230  1  0.566177  0.919536  0.229862  1
  O  O231  1  0.080465  0.646500  0.229903  1
  O  O232  1  0.353516  0.919421  0.229834  1
  O  O233  1  0.566183  0.646476  0.229895  1
  O  O234  1  0.538199  0.666588  0.166685  1
  O  O235  1  0.333367  0.871308  0.166652  1
  O  O236  1  0.538202  0.871411  0.166671  1
  O  O237  1  0.128522  0.666589  0.166678  1
  O  O238  1  0.707876  0.997092  0.057739  1
  O  O239  1  0.289358  0.997089  0.057744  1
  O  O240  1  0.543102  0.886044  0.291086  1
  O  O241  1  0.114097  0.656981  0.291131  1
  O  O242  1  0.343105  0.885937  0.291074  1
  O  O243  1  0.543087  0.656931  0.291126  1
  O  O244  1  0.552645  0.676273  0.042228  1
  O  O245  1  0.323652  0.876178  0.042208  1
  O  O246  1  0.552638  0.876183  0.042231  1
  O  O247  1  0.123771  0.676286  0.042218  1
  O  O248  1  0.409435  0.818606  0.327577  1
  O  O249  1  0.181549  0.590741  0.327638  1
  O  O250  1  0.409417  0.590721  0.327626  1
  O  O251  1  0.257420  0.514695  0.005705  1
  O  O252  1  0.485254  0.742521  0.005724  1
  O  O253  1  0.257382  0.742558  0.005693  1
  O  O254  1  0.895135  0.591848  0.017095  1
  O  O255  1  0.696824  0.591858  0.017094  1
  O  O256  1  0.771837  0.741548  0.316347  1
  O  O257  1  0.970027  0.741407  0.316302  1
  O  O258  1  0.707870  0.710614  0.057756  1
  O  O259  1  0.002874  0.710606  0.057754  1
  O  O260  1  0.958879  0.622626  0.275649  1
  O  O261  1  0.663876  0.622460  0.275624  1
  O  O262  1  0.749430  0.749366  0.000023  1
  O  O263  1  0.855864  0.711609  0.033820  1
  O  O264  1  0.810908  0.621680  0.299619  1
  O  O265  1  0.653100  0.826460  0.067762  1
  O  O266  1  0.173493  0.826459  0.067761  1
  O  O267  1  0.013622  0.506769  0.265614  1
  O  O268  1  0.493248  0.506732  0.265577  1
  O  O269  1  0.493303  0.986431  0.265533  1
  Si  Si270  1  0.512428  0.666771  0.129932  1
  Si  Si271  1  0.333188  0.845402  0.129896  1
  Si  Si272  1  0.512440  0.845472  0.129918  1
  Si  Si273  1  0.154463  0.666744  0.129924  1
  Si  Si274  1  0.512296  0.845652  0.203427  1
  Si  Si275  1  0.154248  0.666395  0.203436  1
  Si  Si276  1  0.333547  0.845541  0.203404  1
  Si  Si277  1  0.512304  0.666439  0.203444  1
  Si  Si278  1  0.756836  0.692434  0.028672  1
  Si  Si279  1  0.935713  0.692425  0.028674  1
  Si  Si280  1  0.909936  0.640824  0.304743  1
  Si  Si281  1  0.731106  0.640950  0.304737  1
  Si  Si282  1  0.627287  0.902717  0.068969  1
  Si  Si283  1  0.097252  0.724378  0.068972  1
  Si  Si284  1  0.275570  0.902704  0.068963  1
  Si  Si285  1  0.627263  0.724380  0.068978  1
  Si  Si286  1  0.569561  0.608779  0.264383  1
  Si  Si287  1  0.391204  0.960546  0.264312  1
  Si  Si288  1  0.569583  0.960660  0.264340  1
  Si  Si289  1  0.039447  0.608846  0.264402  1
  Si  Si290  1  0.511528  0.845340  0.325850  1
  Si  Si291  1  0.154818  0.666102  0.325899  1
  Si  Si292  1  0.334087  0.845353  0.325851  1
  Si  Si293  1  0.511509  0.666070  0.325886  1
  Si  Si294  1  0.512024  0.667188  0.007448  1
  Si  Si295  1  0.332746  0.844646  0.007431  1
  Si  Si296  1  0.511981  0.844612  0.007458  1
  Si  Si297  1  0.155293  0.667199  0.007436  1
  O  O298  1  0.525559  0.762731  0.331539  1
  O  O299  1  0.237432  0.762769  0.331577  1
  O  O300  1  0.000037  0.749348  0.000022  1
  O  O301  1  0.141260  0.570553  0.001741  1
  O  O302  1  0.429429  0.570539  0.001744  1
  O  O303  1  0.429392  0.858673  0.001748  1
  O  O304  1  0.250655  0.999951  0.000010  1
  O  O305  1  0.749370  0.999903  0.000001  1
  O  O306  1  0.818630  0.909107  0.456099  1
  O  O307  1  0.091917  0.908994  0.456116  1
  O  O308  1  0.909926  0.818574  0.543962  1
  O  O309  1  0.922398  0.843391  0.460470  1
  O  O310  1  0.843562  0.921623  0.539564  1
  O  O311  1  0.079339  0.921599  0.539530  1
  O  O312  1  0.767931  0.747235  0.436861  1
  O  O313  1  0.980403  0.747217  0.436812  1
  O  O314  1  0.747587  0.979885  0.563249  1
  O  O315  1  0.020635  0.767313  0.563251  1
  O  O316  1  0.747860  0.767320  0.563233  1
  O  O317  1  0.233390  0.979779  0.563312  1
  O  O318  1  0.796052  0.795393  0.500028  1
  O  O319  1  0.000619  0.795291  0.500022  1
  Si  Si320  1  0.999692  0.821361  0.340790  1
  Si  Si321  1  0.179755  0.999824  0.536791  1
  O  O322  1  0.096346  0.903954  0.335073  1
  O  O323  1  0.781039  0.990199  0.624478  1
  O  O324  1  0.009987  0.790343  0.624497  1
  O  O325  1  0.781153  0.790346  0.624488  1
  O  O326  1  0.209987  0.990200  0.624538  1
  O  O327  1  0.790737  0.780718  0.375628  1
  O  O328  1  0.990683  0.780761  0.375570  1
  O  O329  1  0.848439  0.923974  0.660999  1
  O  O330  1  0.076292  0.923989  0.661023  1
  O  O331  1  0.924346  0.848118  0.339092  1
  O  O332  1  0.561943  0.925141  0.350376  1
  O  O333  1  0.074933  0.636531  0.350409  1
  O  O334  1  0.363783  0.925341  0.350326  1
  O  O335  1  0.561877  0.636665  0.350427  1
  O  O336  1  0.636798  0.561734  0.649615  1
  O  O337  1  0.925415  0.561657  0.649626  1
  O  O338  1  0.669858  0.625523  0.391164  1
  O  O339  1  0.956334  0.625533  0.391101  1
  O  O340  1  0.625798  0.955736  0.608952  1
  O  O341  1  0.044211  0.669372  0.608977  1
  O  O342  1  0.625985  0.669473  0.608913  1
  O  O343  1  0.330854  0.955772  0.609065  1
  O  O344  1  0.666807  0.584116  0.333404  1
  O  O345  1  0.205818  0.999968  0.500046  1
  Si  Si346  1  0.821676  0.821872  0.659279  1
  O  O347  1  0.477850  0.522511  0.632861  1
  O  O348  1  0.477934  0.954930  0.632971  1
  O  O349  1  0.045082  0.522262  0.632867  1
  O  O350  1  0.840540  0.680297  0.401128  1
  O  O351  1  0.680737  0.840027  0.598894  1
  O  O352  1  0.160223  0.839995  0.599016  1
  Si  Si353  1  0.821946  0.821165  0.463270  1
  Si  Si354  1  0.000584  0.821108  0.463263  1
  Si  Si355  1  0.822259  0.821387  0.340855  1
  Si  Si356  1  0.000891  0.821290  0.536776  1
  Si  Si357  1  0.821687  0.821315  0.536789  1
  Si  Si358  1  0.178391  0.999339  0.659302  1
  Si  Si359  1  0.602548  0.576769  0.362068  1
  Si  Si360  1  0.974387  0.576490  0.362011  1
  Si  Si361  1  0.577026  0.974226  0.638055  1
  Si  Si362  1  0.025980  0.602158  0.638045  1
  Si  Si363  1  0.576888  0.602370  0.638001  1
  Si  Si364  1  0.398047  0.974050  0.638141  1
  Si  Si365  1  0.942629  0.706168  0.402329  1
  Si  Si366  1  0.764279  0.706089  0.402367  1
  Si  Si367  1  0.706641  0.763844  0.597702  1
  Si  Si368  1  0.236523  0.942046  0.597819  1
  Si  Si369  1  0.058118  0.763804  0.597765  1
  Si  Si370  1  0.706456  0.942073  0.597720  1
  Si  Si371  1  0.821724  0.999341  0.659243  1
  Si  Si372  1  0.000928  0.821896  0.659279  1
  O  O373  1  0.904278  0.807835  0.664996  1
  O  O374  1  0.808196  0.903979  0.335168  1
  O  O375  1  0.584275  0.666735  0.666638  1
  Si  Si376  1  0.821397  0.999858  0.536783  1
  O  O377  1  0.917393  0.583895  0.333384  1
  O  O378  1  0.795586  0.999981  0.500030  1
  O  O379  1  0.757629  0.515086  0.789430  1
  O  O380  1  0.646656  0.566062  0.770129  1
  O  O381  1  0.919607  0.566056  0.770149  1
  O  O382  1  0.899432  0.586162  0.896575  1
  O  O383  1  0.686826  0.586170  0.896575  1
  O  O384  1  0.666746  0.538152  0.833352  1
  O  O385  1  0.871519  0.538120  0.833353  1
  Si  Si386  1  0.960708  0.569425  0.735668  1
  Si  Si387  1  0.667292  0.511938  0.992600  1
  Si  Si388  1  0.844741  0.511932  0.992600  1
  Si  Si389  1  0.902794  0.627177  0.931071  1
  O  O390  1  0.762901  0.525362  0.668431  1
  O  O391  1  0.876275  0.552551  0.957819  1
  O  O392  1  0.676370  0.552560  0.957819  1
  O  O393  1  0.657136  0.542874  0.708897  1
  O  O394  1  0.886122  0.542895  0.708907  1
  O  O395  1  0.741917  0.969907  0.683769  1
  O  O396  1  0.030436  0.771473  0.683763  1
  O  O397  1  0.741721  0.771515  0.683763  1
  O  O398  1  0.228712  0.969767  0.683811  1
  O  O399  1  0.591936  0.696750  0.982948  1
  O  O400  1  0.303241  0.895047  0.982932  1
  O  O401  1  0.591851  0.894955  0.982957  1
  O  O402  1  0.104907  0.696730  0.982941  1
  O  O403  1  0.336351  0.958782  0.724498  1
  O  O404  1  0.622830  0.663802  0.724393  1
  O  O405  1  0.041343  0.663770  0.724440  1
  O  O406  1  0.622760  0.958702  0.724488  1
  O  O407  1  0.997174  0.707778  0.942289  1
  Si  Si408  1  0.845508  0.511325  0.674129  1
  Si  Si409  1  0.666254  0.511323  0.674126  1
  O  O410  1  0.710700  0.707789  0.942291  1
  O  O411  1  0.333700  0.917165  0.666793  1
  Si  Si412  1  0.724476  0.627186  0.931072  1
  O  O413  1  0.082922  0.666457  0.666703  1
  O  O414  1  0.584462  0.917375  0.666719  1
  Si  Si415  1  0.609015  0.569423  0.735630  1
  O  O416  1  0.189403  0.810688  0.700517  1
  O  O417  1  0.622046  0.810903  0.700489  1
  O  O418  1  0.144207  0.855778  0.966213  1
  O  O419  1  0.711665  0.855788  0.966210  1
  O  O420  1  0.826549  0.653009  0.932285  1
  Si  Si421  1  0.666573  0.512201  0.796598  1
  Si  Si422  1  0.845778  0.512164  0.796599  1
  Si  Si423  1  0.845582  0.512377  0.870108  1
  Si  Si424  1  0.666896  0.512385  0.870108  1
  Si  Si425  1  0.269249  0.909743  0.695404  1
  Si  Si426  1  0.641130  0.730998  0.695315  1
  Si  Si427  1  0.090381  0.730844  0.695345  1
  Si  Si428  1  0.641327  0.909983  0.695388  1
  Si  Si429  1  0.064349  0.756750  0.971364  1
  Si  Si430  1  0.692442  0.935613  0.971343  1
  Si  Si431  1  0.243242  0.935628  0.971355  1
  Si  Si432  1  0.692510  0.756769  0.971369  1
