# generated using pymatgen
data_SiO2
_symmetry_space_group_name_H-M   'P 1'
_cell_length_a   5.08835178
_cell_length_b   34.54776060
_cell_length_c   21.43488385
_cell_angle_alpha   90.00000000
_cell_angle_beta   90.00000000
_cell_angle_gamma   90.00000000
_symmetry_Int_Tables_number   1
_chemical_formula_structural   SiO2
_chemical_formula_sum   'Si64 O128'
_cell_volume   3768.06308167
_cell_formula_units_Z   64
loop_
 _symmetry_equiv_pos_site_id
 _symmetry_equiv_pos_as_xyz
  1  'x, y, z'
loop_
 _atom_site_type_symbol
 _atom_site_label
 _atom_site_symmetry_multiplicity
 _atom_site_fract_x
 _atom_site_fract_y
 _atom_site_fract_z
 _atom_site_occupancy
  O  O1  1  0.000220  0.040897  0.950501  1
  O  O2  1  0.500181  0.540901  0.950542  1
  O  O3  1  0.998707  0.959015  0.450477  1
  O  O4  1  0.500933  0.458999  0.450554  1
  O  O5  1  0.000059  0.958958  0.049464  1
  O  O6  1  0.500727  0.458955  0.049530  1
  O  O7  1  0.000294  0.040938  0.549484  1
  O  O8  1  0.499892  0.540965  0.549513  1
  O  O9  1  0.249103  0.087361  0.020660  1
  O  O10  1  0.750278  0.587447  0.020067  1
  O  O11  1  0.749592  0.087500  0.019607  1
  O  O12  1  0.250787  0.587431  0.020319  1
  O  O13  1  0.248705  0.912406  0.519735  1
  O  O14  1  0.750351  0.412541  0.520569  1
  O  O15  1  0.749218  0.912534  0.520458  1
  O  O16  1  0.250845  0.412405  0.519862  1
  O  O17  1  0.750129  0.912352  0.980212  1
  O  O18  1  0.250654  0.412377  0.980144  1
  O  O19  1  0.249623  0.912491  0.979461  1
  O  O20  1  0.750148  0.412455  0.979637  1
  O  O21  1  0.749767  0.087560  0.480385  1
  O  O22  1  0.250454  0.587480  0.479656  1
  O  O23  1  0.249279  0.087410  0.479380  1
  O  O24  1  0.749945  0.587505  0.480026  1
  O  O25  1  0.997826  0.029672  0.068033  1
  O  O26  1  0.500656  0.529677  0.068076  1
  O  O27  1  0.000265  0.970218  0.568018  1
  O  O28  1  0.499340  0.470242  0.568078  1
  O  O29  1  0.998375  0.970180  0.931925  1
  O  O30  1  0.499662  0.470178  0.931995  1
  O  O31  1  0.997934  0.029735  0.431944  1
  O  O32  1  0.500631  0.529720  0.431985  1
  O  O33  1  0.249589  0.205301  0.966147  1
  O  O34  1  0.748537  0.705166  0.966334  1
  O  O35  1  0.749897  0.205256  0.966073  1
  O  O36  1  0.248805  0.705368  0.965768  1
  O  O37  1  0.252733  0.794468  0.465329  1
  O  O38  1  0.748624  0.294708  0.466425  1
  O  O39  1  0.753062  0.794792  0.466705  1
  O  O40  1  0.248908  0.294565  0.465862  1
  O  O41  1  0.749432  0.794572  0.034186  1
  O  O42  1  0.248327  0.294485  0.034401  1
  O  O43  1  0.249113  0.794601  0.033747  1
  O  O44  1  0.748039  0.294687  0.033734  1
  O  O45  1  0.750805  0.205260  0.533961  1
  O  O46  1  0.250527  0.705295  0.533857  1
  O  O47  1  0.250503  0.205374  0.534166  1
  O  O48  1  0.750261  0.705354  0.534091  1
  O  O49  1  0.500020  0.233276  0.057033  1
  O  O50  1  0.000030  0.733279  0.056969  1
  O  O51  1  0.499581  0.766635  0.556929  1
  O  O52  1  0.000119  0.266624  0.557059  1
  O  O53  1  0.500412  0.766576  0.943065  1
  O  O54  1  0.999802  0.266586  0.943137  1
  O  O55  1  0.500213  0.233330  0.443153  1
  O  O56  1  0.999730  0.733324  0.443039  1
  O  O57  1  0.499482  0.154318  0.024243  1
  O  O58  1  0.000607  0.654320  0.024175  1
  O  O59  1  0.498941  0.845587  0.524151  1
  O  O60  1  0.000421  0.345589  0.524263  1
  O  O61  1  0.499964  0.845536  0.975808  1
  O  O62  1  0.000358  0.345534  0.975930  1
  O  O63  1  0.499528  0.154373  0.475880  1
  O  O64  1  0.999882  0.654373  0.475860  1
  O  O65  1  0.999809  0.423766  0.171448  1
  O  O66  1  0.499079  0.923743  0.171395  1
  O  O67  1  0.000198  0.576153  0.671423  1
  O  O68  1  0.498877  0.076134  0.671393  1
  O  O69  1  0.000522  0.576098  0.828665  1
  O  O70  1  0.498187  0.076132  0.828634  1
  O  O71  1  0.999867  0.423790  0.328691  1
  O  O72  1  0.498926  0.923800  0.328616  1
  O  O73  1  0.257082  0.360660  0.163063  1
  O  O74  1  0.764722  0.861334  0.162200  1
  O  O75  1  0.752152  0.359624  0.164697  1
  O  O76  1  0.260052  0.858870  0.165245  1
  O  O77  1  0.249180  0.640147  0.664442  1
  O  O78  1  0.761279  0.138727  0.662135  1
  O  O79  1  0.744232  0.639399  0.663200  1
  O  O80  1  0.256449  0.140831  0.665406  1
  O  O81  1  0.745796  0.639458  0.836594  1
  O  O82  1  0.258631  0.141076  0.834526  1
  O  O83  1  0.250751  0.639972  0.835753  1
  O  O84  1  0.763356  0.138501  0.838165  1
  O  O85  1  0.755202  0.359356  0.335124  1
  O  O86  1  0.235141  0.861254  0.337634  1
  O  O87  1  0.260035  0.360950  0.337473  1
  O  O88  1  0.739838  0.859038  0.334784  1
  O  O89  1  0.996911  0.386983  0.071908  1
  O  O90  1  0.495073  0.886906  0.071821  1
  O  O91  1  0.002681  0.612914  0.571854  1
  O  O92  1  0.493039  0.113004  0.571870  1
  O  O93  1  0.002260  0.612869  0.928184  1
  O  O94  1  0.492716  0.112996  0.928192  1
  O  O95  1  0.995832  0.386977  0.428235  1
  O  O96  1  0.503618  0.886942  0.428128  1
  O  O97  1  0.500379  0.298290  0.134905  1
  O  O98  1  0.001104  0.798302  0.134825  1
  O  O99  1  0.499728  0.701628  0.634813  1
  O  O100  1  0.999953  0.201607  0.634924  1
  O  O101  1  0.500532  0.701565  0.865218  1
  O  O102  1  0.999938  0.201588  0.865235  1
  O  O103  1  0.500762  0.298330  0.365289  1
  O  O104  1  0.997776  0.798339  0.365159  1
  O  O105  1  0.250611  0.015631  0.643756  1
  O  O106  1  0.751189  0.515679  0.643642  1
  O  O107  1  0.748806  0.015706  0.643607  1
  O  O108  1  0.249396  0.515714  0.643796  1
  O  O109  1  0.250937  0.984314  0.143555  1
  O  O110  1  0.751097  0.484246  0.143806  1
  O  O111  1  0.749127  0.984128  0.143777  1
  O  O112  1  0.249305  0.484205  0.143659  1
  O  O113  1  0.748155  0.984253  0.356214  1
  O  O114  1  0.249544  0.484220  0.356400  1
  O  O115  1  0.249970  0.984291  0.356356  1
  O  O116  1  0.751339  0.484295  0.356295  1
  O  O117  1  0.748513  0.015768  0.856338  1
  O  O118  1  0.249597  0.515643  0.856260  1
  O  O119  1  0.250329  0.015541  0.856251  1
  O  O120  1  0.751393  0.515618  0.856416  1
  O  O121  1  0.496349  0.325462  0.250094  1
  O  O122  1  0.999284  0.825524  0.249985  1
  O  O123  1  0.502389  0.674479  0.750013  1
  O  O124  1  0.992675  0.174339  0.750070  1
  O  O125  1  0.000696  0.477977  0.250043  1
  O  O126  1  0.498946  0.977972  0.249973  1
  O  O127  1  0.999915  0.521926  0.750026  1
  O  O128  1  0.499922  0.021936  0.749993  1
  Si  Si129  1  0.998989  0.061299  0.015683  1
  Si  Si130  1  0.500569  0.561301  0.015731  1
  Si  Si131  1  0.999297  0.938605  0.515655  1
  Si  Si132  1  0.500256  0.438607  0.515749  1
  Si  Si133  1  0.999506  0.938557  0.984276  1
  Si  Si134  1  0.500204  0.438554  0.984343  1
  Si  Si135  1  0.999142  0.061350  0.484308  1
  Si  Si136  1  0.500274  0.561355  0.484315  1
  Si  Si137  1  0.499823  0.199010  0.007191  1
  Si  Si138  1  0.999609  0.699007  0.007139  1
  Si  Si139  1  0.500725  0.800899  0.507091  1
  Si  Si140  1  0.999664  0.300898  0.507229  1
  Si  Si141  1  0.499907  0.800851  0.992885  1
  Si  Si142  1  0.999277  0.300849  0.992982  1
  Si  Si143  1  0.500281  0.199056  0.492978  1
  Si  Si144  1  0.000027  0.699061  0.492885  1
  Si  Si145  1  0.001414  0.382108  0.143777  1
  Si  Si146  1  0.505119  0.882101  0.143687  1
  Si  Si147  1  0.999078  0.617806  0.643722  1
  Si  Si148  1  0.502361  0.117793  0.643739  1
  Si  Si149  1  0.999877  0.617760  0.856316  1
  Si  Si150  1  0.503246  0.117781  0.856326  1
  Si  Si151  1  0.002752  0.382136  0.356367  1
  Si  Si152  1  0.494095  0.882143  0.356263  1
  Si  Si153  1  0.499290  0.278949  0.068020  1
  Si  Si154  1  0.999878  0.778955  0.067941  1
  Si  Si155  1  0.500016  0.720963  0.567925  1
  Si  Si156  1  0.000257  0.220948  0.568031  1
  Si  Si157  1  0.499658  0.720902  0.932099  1
  Si  Si158  1  0.999777  0.220912  0.932142  1
  Si  Si159  1  0.499669  0.279004  0.432184  1
  Si  Si160  1  0.000721  0.778999  0.432047  1
  Si  Si161  1  0.999894  0.010095  0.602758  1
  Si  Si162  1  0.500033  0.510125  0.602796  1
  Si  Si163  1  0.999560  0.989794  0.102750  1
  Si  Si164  1  0.500390  0.489797  0.102808  1
  Si  Si165  1  0.998808  0.989857  0.397202  1
  Si  Si166  1  0.500550  0.489836  0.397269  1
  Si  Si167  1  0.999370  0.010066  0.897210  1
  Si  Si168  1  0.500249  0.510058  0.897264  1
  Si  Si169  1  0.999982  0.389188  0.999320  1
  Si  Si170  1  0.499226  0.889188  0.999236  1
  Si  Si171  1  0.000428  0.610723  0.499263  1
  Si  Si172  1  0.498693  0.110718  0.499292  1
  Si  Si173  1  0.000706  0.610670  0.000773  1
  Si  Si174  1  0.498520  0.110674  0.000768  1
  Si  Si175  1  0.999958  0.389235  0.500819  1
  Si  Si176  1  0.499568  0.889235  0.500710  1
  Si  Si177  1  0.501290  0.335209  0.178540  1
  Si  Si178  1  0.005217  0.835240  0.178436  1
  Si  Si179  1  0.499121  0.664716  0.678461  1
  Si  Si180  1  0.002166  0.164657  0.678516  1
  Si  Si181  1  0.499956  0.664666  0.821552  1
  Si  Si182  1  0.003058  0.164648  0.821616  1
  Si  Si183  1  0.502651  0.335240  0.321633  1
  Si  Si184  1  0.994002  0.835266  0.321527  1
  Si  Si185  1  0.000322  0.468733  0.178111  1
  Si  Si186  1  0.499516  0.968716  0.178046  1
  Si  Si187  1  0.000074  0.531187  0.678099  1
  Si  Si188  1  0.499770  0.031167  0.678058  1
  Si  Si189  1  0.000280  0.531135  0.821970  1
  Si  Si190  1  0.499260  0.031165  0.821931  1
  Si  Si191  1  0.000467  0.468753  0.321982  1
  Si  Si192  1  0.498861  0.968764  0.321917  1
