# generated using pymatgen
data_SiO2
_symmetry_space_group_name_H-M   'P 1'
_cell_length_a   11.93299392
_cell_length_b   11.93342971
_cell_length_c   29.88603890
_cell_angle_alpha   90.00000000
_cell_angle_beta   90.00000000
_cell_angle_gamma   120.00000000
_symmetry_Int_Tables_number   1
_chemical_formula_structural   SiO2
_chemical_formula_sum   'Si60 O120'
_cell_volume   3685.64657813
_cell_formula_units_Z   60
loop_
 _symmetry_equiv_pos_site_id
 _symmetry_equiv_pos_as_xyz
  1  'x, y, z'
loop_
 _atom_site_type_symbol
 _atom_site_label
 _atom_site_symmetry_multiplicity
 _atom_site_fract_x
 _atom_site_fract_y
 _atom_site_fract_z
 _atom_site_occupancy
  O  O1  1  0.578441  0.224000  0.167125  1
  O  O2  1  0.645597  0.224003  0.332932  1
  O  O3  1  0.895063  0.113794  0.134253  1
  O  O4  1  0.648205  0.323976  0.083361  1
  O  O5  1  0.652069  0.022770  0.298756  1
  O  O6  1  0.022866  0.370638  0.132091  1
  O  O7  1  0.370733  0.022770  0.201302  1
  O  O8  1  0.768892  0.308114  0.015561  1
  O  O9  1  0.768887  0.460521  0.151162  1
  O  O10  1  0.782056  0.260273  0.131252  1
  O  O11  1  0.896825  0.241869  0.065115  1
  O  O12  1  0.438065  0.011148  0.316614  1
  O  O13  1  0.011246  0.437970  0.016779  1
  O  O14  1  0.573115  0.011146  0.183445  1
  O  O15  1  0.570317  0.140601  0.250029  1
  Si  Si16  1  0.687036  0.369728  0.033346  1
  Si  Si17  1  0.687031  0.317054  0.133377  1
  Si  Si18  1  0.581752  0.104642  0.299933  1
  Si  Si19  1  0.522926  0.104642  0.200124  1
  Si  Si20  1  0.893542  0.294407  0.017353  1
  Si  Si21  1  0.898972  0.241045  0.117480  1
  Si  Si22  1  0.150790  0.115577  0.533616  1
  O  O23  1  0.775802  0.354198  0.500457  1
  O  O24  1  0.775791  0.421351  0.666262  1
  O  O25  1  0.218772  0.113803  0.365808  1
  O  O26  1  0.104834  0.218686  0.532472  1
  O  O27  1  0.144267  0.072013  0.583363  1
  O  O28  1  0.295805  0.097128  0.649633  1
  O  O29  1  0.295815  0.198435  0.517094  1
  O  O30  1  0.675817  0.323981  0.416695  1
  O  O31  1  0.347816  0.370645  0.367972  1
  O  O32  1  0.977034  0.347727  0.534634  1
  O  O33  1  0.691676  0.460528  0.348896  1
  O  O34  1  0.539276  0.308118  0.484498  1
  O  O35  1  0.478258  0.260278  0.368807  1
  O  O36  1  0.217842  0.478172  0.535475  1
  O  O37  1  0.345093  0.241873  0.434946  1
  O  O38  1  0.103073  0.344998  0.601611  1
  O  O39  1  0.988649  0.426677  0.649946  1
  O  O40  1  0.426778  0.437975  0.483283  1
  O  O41  1  0.859200  0.429477  0.583360  1
  Si  Si42  1  0.630065  0.317059  0.366680  1
  Si  Si43  1  0.682745  0.369733  0.466710  1
  Si  Si44  1  0.895157  0.476870  0.633264  1
  Si  Si45  1  0.895165  0.418047  0.533456  1
  Si  Si46  1  0.400921  0.294414  0.482707  1
  Si  Si47  1  0.106357  0.400819  0.649372  1
  Si  Si48  1  0.342117  0.241053  0.382581  1
  Si  Si49  1  0.100930  0.342029  0.549245  1
  Si  Si50  1  0.150782  0.034963  0.633110  1
  O  O51  1  0.999944  0.074084  0.833363  1
  O  O52  1  0.645601  0.421361  0.833789  1
  O  O53  1  0.578449  0.354192  0.999596  1
  O  O54  1  0.113900  0.218673  0.967585  1
  O  O55  1  0.218774  0.104735  0.800920  1
  O  O56  1  0.885992  0.104730  0.699139  1
  O  O57  1  0.927781  0.072009  0.916697  1
  O  O58  1  0.072104  0.144174  0.750029  1
  O  O59  1  0.902672  0.198431  0.982967  1
  O  O60  1  0.198526  0.295716  0.816299  1
  O  O61  1  0.097222  0.295711  0.683759  1
  O  O62  1  0.801363  0.097137  0.850426  1
  O  O63  1  0.675816  0.351596  0.750026  1
  O  O64  1  0.370741  0.347716  0.965421  1
  O  O65  1  0.539267  0.230908  0.682227  1
  O  O66  1  0.691679  0.230916  0.817829  1
  O  O67  1  0.739517  0.217739  0.702139  1
  O  O68  1  0.260375  0.478158  0.964586  1
  O  O69  1  0.478260  0.217745  0.797917  1
  O  O70  1  0.241967  0.344996  0.898447  1
  O  O71  1  0.345088  0.102975  0.731781  1
  O  O72  1  0.757923  0.102979  0.768278  1
  O  O73  1  0.438068  0.426681  0.850109  1
  O  O74  1  0.570324  0.429475  0.916693  1
  Si  Si75  1  0.682739  0.312766  0.700011  1
  Si  Si76  1  0.630068  0.312772  0.800042  1
  Si  Si77  1  0.522934  0.418039  0.966598  1
  Si  Si78  1  0.581756  0.476875  0.866790  1
  Si  Si79  1  0.294502  0.400824  0.850685  1
  Si  Si80  1  0.400913  0.106259  0.684020  1
  Si  Si81  1  0.705386  0.106270  0.816039  1
  Si  Si82  1  0.241147  0.342021  0.950812  1
  Si  Si83  1  0.342119  0.100828  0.784146  1
  Si  Si84  1  0.758742  0.100828  0.715913  1
  Si  Si85  1  0.964829  0.115569  0.966444  1
  Si  Si86  1  0.115667  0.150697  0.799776  1
  Si  Si87  1  0.035062  0.150693  0.700282  1
  Si  Si88  1  0.884218  0.034970  0.866949  1
  O  O89  1  0.074172  0.074079  0.666696  1
  Si  Si90  1  0.964819  0.849001  0.200282  1
  O  O91  1  0.224101  0.645499  0.000461  1
  O  O92  1  0.925706  0.925611  0.166696  1
  O  O93  1  0.224096  0.578347  0.166268  1
  O  O94  1  0.781113  0.894971  0.300920  1
  O  O95  1  0.895068  0.781016  0.032473  1
  O  O96  1  0.113891  0.894970  0.199139  1
  O  O97  1  0.927778  0.855523  0.250029  1
  O  O98  1  0.855618  0.927682  0.083363  1
  O  O99  1  0.801360  0.703990  0.316300  1
  O  O100  1  0.704076  0.902568  0.149633  1
  O  O101  1  0.704084  0.801259  0.017092  1
  O  O102  1  0.902664  0.703983  0.183759  1
  O  O103  1  0.324070  0.648109  0.250031  1
  O  O104  1  0.022869  0.651974  0.034636  1
  O  O105  1  0.460616  0.768793  0.182230  1
  O  O106  1  0.308209  0.768794  0.317831  1
  O  O107  1  0.782060  0.521531  0.035473  1
  O  O108  1  0.260368  0.781963  0.202141  1
  O  O109  1  0.521628  0.781963  0.297920  1
  O  O110  1  0.654797  0.896727  0.231782  1
  O  O111  1  0.896824  0.654701  0.101610  1
  O  O112  1  0.241963  0.896728  0.268277  1
  O  O113  1  0.011241  0.573019  0.149948  1
  O  O114  1  0.140698  0.570222  0.083364  1
  Si  Si115  1  0.317147  0.686937  0.200016  1
  Si  Si116  1  0.369821  0.686936  0.300047  1
  Si  Si117  1  0.104735  0.522826  0.133268  1
  Si  Si118  1  0.104738  0.581654  0.033460  1
  Si  Si119  1  0.598970  0.893441  0.184020  1
  Si  Si120  1  0.893534  0.598878  0.149372  1
  Si  Si121  1  0.294502  0.893440  0.316039  1
  Si  Si122  1  0.657767  0.898877  0.284147  1
  Si  Si123  1  0.898971  0.657672  0.049245  1
  Si  Si124  1  0.241143  0.898876  0.215913  1
  Si  Si125  1  0.884218  0.849008  0.299777  1
  Si  Si126  1  0.849099  0.964729  0.133109  1
  Si  Si127  1  0.849106  0.884121  0.033616  1
  O  O128  1  0.925715  0.999845  0.000030  1
  Si  Si129  1  0.115667  0.964737  0.366949  1
  O  O130  1  0.354289  0.578351  0.333795  1
  Si  Si131  1  0.035068  0.884129  0.466444  1
  O  O132  1  0.421458  0.645509  0.499602  1
  O  O133  1  0.104824  0.885900  0.634252  1
  O  O134  1  0.885999  0.781019  0.467588  1
  O  O135  1  0.072103  0.927687  0.416696  1
  O  O136  1  0.097233  0.801272  0.482966  1
  O  O137  1  0.198526  0.902575  0.350426  1
  O  O138  1  0.351693  0.675725  0.583365  1
  O  O139  1  0.977026  0.629057  0.632088  1
  O  O140  1  0.629159  0.651980  0.465425  1
  O  O141  1  0.231014  0.691589  0.515562  1
  O  O142  1  0.231003  0.539174  0.651165  1
  O  O143  1  0.217835  0.739424  0.631253  1
  O  O144  1  0.739522  0.521536  0.464585  1
  O  O145  1  0.103074  0.757831  0.565114  1
  O  O146  1  0.757925  0.654706  0.398449  1
  O  O147  1  0.561821  0.573026  0.350113  1
  O  O148  1  0.988658  0.561731  0.516776  1
  O  O149  1  0.429573  0.570228  0.416699  1
  Si  Si150  1  0.312867  0.629975  0.533350  1
  Si  Si151  1  0.312860  0.682644  0.633380  1
  Si  Si152  1  0.476967  0.581659  0.466603  1
  Si  Si153  1  0.418134  0.522833  0.366795  1
  Si  Si154  1  0.106363  0.705295  0.517352  1
  Si  Si155  1  0.705386  0.598882  0.350687  1
  Si  Si156  1  0.100921  0.758652  0.617479  1
  Si  Si157  1  0.758751  0.657676  0.450814  1
  O  O158  1  0.074181  0.999854  0.500029  1
  O  O159  1  0.999943  0.925622  0.333362  1
  Si  Si160  1  0.657771  0.758652  0.882579  1
  O  O161  1  0.354289  0.775705  0.832935  1
  O  O162  1  0.781112  0.885905  0.865805  1
  O  O163  1  0.324073  0.675717  0.916698  1
  O  O164  1  0.347818  0.976938  0.798758  1
  O  O165  1  0.629151  0.976932  0.701304  1
  O  O166  1  0.652072  0.629062  0.867967  1
  O  O167  1  0.308210  0.539178  0.848895  1
  O  O168  1  0.460623  0.691575  0.984498  1
  O  O169  1  0.521628  0.739426  0.868808  1
  O  O170  1  0.654800  0.757826  0.934945  1
  O  O171  1  0.573122  0.561721  0.983279  1
  O  O172  1  0.561823  0.988562  0.816616  1
  O  O173  1  0.426769  0.988554  0.683446  1
  O  O174  1  0.429569  0.859104  0.750032  1
  Si  Si175  1  0.369820  0.682645  0.866682  1
  Si  Si176  1  0.317152  0.629961  0.966712  1
  Si  Si177  1  0.418135  0.895065  0.799936  1
  Si  Si178  1  0.476958  0.895060  0.700128  1
  Si  Si179  1  0.598979  0.705282  0.982705  1
  O  O180  1  0.421446  0.775699  0.667130  1
