# generated using pymatgen
data_SiO2
_symmetry_space_group_name_H-M   'P 1'
_cell_length_a   13.77334602
_cell_length_b   13.77226437
_cell_length_c   21.39245218
_cell_angle_alpha   90.00000000
_cell_angle_beta   90.00000000
_cell_angle_gamma   90.00000000
_symmetry_Int_Tables_number   1
_chemical_formula_structural   SiO2
_chemical_formula_sum   'Si56 O112'
_cell_volume   4057.93773414
_cell_formula_units_Z   56
loop_
 _symmetry_equiv_pos_site_id
 _symmetry_equiv_pos_as_xyz
  1  'x, y, z'
loop_
 _atom_site_type_symbol
 _atom_site_label
 _atom_site_symmetry_multiplicity
 _atom_site_fract_x
 _atom_site_fract_y
 _atom_site_fract_z
 _atom_site_occupancy
  O  O1  1  0.128647  0.191374  0.167581  1
  O  O2  1  0.871337  0.191388  0.167606  1
  O  O3  1  0.172956  0.139101  0.056424  1
  O  O4  1  0.826948  0.139122  0.056463  1
  O  O5  1  0.999957  0.117589  0.099191  1
  O  O6  1  0.000025  0.309758  0.205430  1
  O  O7  1  0.128197  0.364682  0.129837  1
  O  O8  1  0.871821  0.364693  0.129846  1
  O  O9  1  0.829304  0.329253  0.250059  1
  O  O10  1  0.170769  0.329232  0.250040  1
  O  O11  1  0.176474  0.312659  0.019502  1
  O  O12  1  0.823527  0.312672  0.019512  1
  O  O13  1  0.000011  0.371975  0.045914  1
  Si  Si14  1  0.111496  0.299970  0.190066  1
  Si  Si15  1  0.112186  0.110618  0.115890  1
  Si  Si16  1  0.887735  0.110620  0.115917  1
  Si  Si17  1  0.112322  0.388087  0.058039  1
  Si  Si18  1  0.887706  0.388086  0.058046  1
  Si  Si19  1  0.200012  0.388494  0.310023  1
  Si  Si20  1  0.888549  0.299983  0.190075  1
  Si  Si21  1  0.800103  0.388491  0.310057  1
  O  O22  1  0.691519  0.371316  0.332558  1
  O  O23  1  0.308604  0.371323  0.332520  1
  O  O24  1  0.866219  0.499844  0.047084  1
  O  O25  1  0.133802  0.499845  0.047080  1
  Si  Si26  1  0.794921  0.204912  0.000053  1
  Si  Si27  1  0.205059  0.204898  0.000037  1
  O  O28  1  0.190245  0.499970  0.294664  1
  O  O29  1  0.809864  0.499969  0.294698  1
  Si  Si30  1  0.387784  0.111715  0.558039  1
  Si  Si31  1  0.389353  0.387783  0.384207  1
  Si  Si32  1  0.612339  0.389182  0.615913  1
  Si  Si33  1  0.610769  0.387781  0.384251  1
  O  O34  1  0.327127  0.360701  0.556423  1
  O  O35  1  0.639290  0.327039  0.443721  1
  O  O36  1  0.673116  0.360688  0.556453  1
  O  O37  1  0.360857  0.327029  0.443678  1
  Si  Si38  1  0.295023  0.294896  0.500040  1
  O  O39  1  0.500115  0.382213  0.599195  1
  Si  Si40  1  0.705172  0.294889  0.500057  1
  O  O41  1  0.500072  0.369342  0.367247  1
  Si  Si42  1  0.111848  0.387652  0.442035  1
  O  O43  1  0.371893  0.135089  0.629840  1
  O  O44  1  0.864913  0.371782  0.370248  1
  O  O45  1  0.628265  0.135085  0.629850  1
  O  O46  1  0.135261  0.371795  0.370240  1
  O  O47  1  0.323609  0.187138  0.519509  1
  O  O48  1  0.812917  0.323472  0.480566  1
  O  O49  1  0.676581  0.187132  0.519521  1
  O  O50  1  0.187272  0.323483  0.480560  1
  Si  Si51  1  0.612399  0.111712  0.558042  1
  Si  Si52  1  0.888341  0.387656  0.442048  1
  O  O53  1  0.500085  0.127828  0.545904  1
  O  O54  1  0.000096  0.366170  0.453008  1
  Si  Si55  1  0.387886  0.389183  0.615892  1
  O  O56  1  0.872232  0.499965  0.454194  1
  O  O57  1  0.369447  0.499902  0.632854  1
  O  O58  1  0.127960  0.499967  0.454169  1
  O  O59  1  0.630780  0.499903  0.632876  1
  O  O60  1  0.808566  0.128461  0.832573  1
  O  O61  1  0.191484  0.128451  0.832521  1
  O  O62  1  0.860811  0.172725  0.943729  1
  O  O63  1  0.139228  0.172740  0.943680  1
  Si  Si64  1  0.388598  0.199833  0.690066  1
  O  O65  1  0.000018  0.130414  0.867252  1
  Si  Si66  1  0.699999  0.111300  0.810047  1
  O  O67  1  0.500071  0.190048  0.705438  1
  O  O68  1  0.635203  0.128022  0.870241  1
  O  O69  1  0.364818  0.128029  0.870231  1
  O  O70  1  0.329312  0.170561  0.750035  1
  O  O71  1  0.670805  0.170547  0.750049  1
  O  O72  1  0.687173  0.176349  0.980552  1
  O  O73  1  0.312813  0.176327  0.980558  1
  O  O74  1  0.499996  0.133653  0.952998  1
  Si  Si75  1  0.889318  0.111979  0.884258  1
  Si  Si76  1  0.110735  0.111976  0.884213  1
  Si  Si77  1  0.611752  0.112162  0.942034  1
  Si  Si78  1  0.388243  0.112168  0.942029  1
  Si  Si79  1  0.611546  0.199822  0.690070  1
  Si  Si80  1  0.300069  0.111303  0.810020  1
  O  O81  1  0.628752  0.308426  0.667609  1
  O  O82  1  0.371431  0.308436  0.667588  1
  O  O83  1  0.871312  0.808436  0.167554  1
  O  O84  1  0.128671  0.808451  0.167527  1
  O  O85  1  0.826978  0.860653  0.056406  1
  O  O86  1  0.172913  0.860674  0.056361  1
  O  O87  1  0.999953  0.882229  0.099151  1
  O  O88  1  0.308584  0.628665  0.332509  1
  Si  Si89  1  0.888547  0.699858  0.190052  1
  Si  Si90  1  0.794895  0.794745  0.000065  1
  Si  Si91  1  0.200000  0.611448  0.310029  1
  O  O92  1  0.000025  0.690127  0.205416  1
  O  O93  1  0.871840  0.635024  0.129868  1
  O  O94  1  0.128192  0.635027  0.129862  1
  O  O95  1  0.829328  0.670672  0.250061  1
  O  O96  1  0.170746  0.670695  0.250042  1
  O  O97  1  0.823484  0.687006  0.019564  1
  O  O98  1  0.176516  0.687014  0.019554  1
  O  O99  1  0.000009  0.627720  0.045924  1
  O  O100  1  0.691534  0.628670  0.332548  1
  Si  Si101  1  0.887729  0.889196  0.115867  1
  Si  Si102  1  0.112185  0.889198  0.115837  1
  Si  Si103  1  0.887702  0.611597  0.058067  1
  Si  Si104  1  0.112317  0.611596  0.058062  1
  Si  Si105  1  0.111498  0.699873  0.190042  1
  Si  Si106  1  0.800119  0.611448  0.310063  1
  O  O107  1  0.130625  0.999895  0.132847  1
  O  O108  1  0.869291  0.999898  0.132878  1
  Si  Si109  1  0.205080  0.794757  0.000044  1
  O  O110  1  0.633880  0.999956  0.547082  1
  O  O111  1  0.617736  0.500015  0.400943  1
  Si  Si112  1  0.612400  0.888199  0.558067  1
  Si  Si113  1  0.295017  0.705040  0.500043  1
  O  O114  1  0.360840  0.673002  0.443654  1
  O  O115  1  0.673097  0.639145  0.556405  1
  O  O116  1  0.639309  0.672991  0.443695  1
  O  O117  1  0.327148  0.639135  0.556375  1
  Si  Si118  1  0.888345  0.612278  0.442056  1
  O  O119  1  0.500118  0.617570  0.599150  1
  O  O120  1  0.500071  0.630691  0.367228  1
  O  O121  1  0.135261  0.628162  0.370247  1
  O  O122  1  0.628266  0.864755  0.629851  1
  O  O123  1  0.864922  0.628167  0.370258  1
  O  O124  1  0.371891  0.864770  0.629857  1
  O  O125  1  0.187264  0.676457  0.480571  1
  O  O126  1  0.676596  0.812790  0.519551  1
  O  O127  1  0.812930  0.676468  0.480574  1
  O  O128  1  0.323595  0.812784  0.519542  1
  O  O129  1  0.500099  0.872084  0.545923  1
  O  O130  1  0.000097  0.633767  0.453023  1
  Si  Si131  1  0.387784  0.888203  0.558059  1
  Si  Si132  1  0.705181  0.705046  0.500059  1
  Si  Si133  1  0.389355  0.612242  0.384190  1
  Si  Si134  1  0.612342  0.610614  0.615867  1
  Si  Si135  1  0.610772  0.612243  0.384231  1
  Si  Si136  1  0.387887  0.610609  0.615846  1
  Si  Si137  1  0.111849  0.612274  0.442043  1
  O  O138  1  0.366300  0.999957  0.547076  1
  O  O139  1  0.382386  0.500015  0.400904  1
  O  O140  1  0.191514  0.871115  0.832502  1
  O  O141  1  0.808553  0.871104  0.832547  1
  O  O142  1  0.139264  0.826753  0.943641  1
  O  O143  1  0.860774  0.826776  0.943699  1
  O  O144  1  0.882353  0.999747  0.900948  1
  O  O145  1  0.000018  0.869066  0.867226  1
  O  O146  1  0.500070  0.809690  0.705408  1
  O  O147  1  0.690238  0.999821  0.794694  1
  O  O148  1  0.364835  0.871641  0.870256  1
  O  O149  1  0.635161  0.871645  0.870259  1
  O  O150  1  0.329365  0.829111  0.750044  1
  O  O151  1  0.670762  0.829123  0.750064  1
  O  O152  1  0.312832  0.823363  0.980582  1
  O  O153  1  0.687154  0.823339  0.980577  1
  O  O154  1  0.628769  0.691373  0.667539  1
  O  O155  1  0.372133  0.999849  0.954175  1
  O  O156  1  0.499994  0.866055  0.953030  1
  Si  Si157  1  0.110737  0.887517  0.884182  1
  Si  Si158  1  0.889319  0.887519  0.884233  1
  Si  Si159  1  0.388242  0.887546  0.942048  1
  Si  Si160  1  0.611746  0.887540  0.942060  1
  Si  Si161  1  0.699972  0.888346  0.810069  1
  Si  Si162  1  0.388596  0.799936  0.690041  1
  Si  Si163  1  0.300099  0.888348  0.810030  1
  Si  Si164  1  0.611550  0.799947  0.690055  1
  O  O165  1  0.371421  0.691358  0.667532  1
  O  O166  1  0.309852  0.999827  0.794667  1
  O  O167  1  0.117705  0.999742  0.900904  1
  O  O168  1  0.627862  0.999856  0.954191  1
