# generated using pymatgen
data_SiO2
_symmetry_space_group_name_H-M   'P 1'
_cell_length_a   13.15239484
_cell_length_b   21.72402355
_cell_length_c   13.70814893
_cell_angle_alpha   90.00000000
_cell_angle_beta   102.90500000
_cell_angle_gamma   90.00000000
_symmetry_Int_Tables_number   1
_chemical_formula_structural   SiO2
_chemical_formula_sum   'Si64 O128'
_cell_volume   3817.80257546
_cell_formula_units_Z   64
loop_
 _symmetry_equiv_pos_site_id
 _symmetry_equiv_pos_as_xyz
  1  'x, y, z'
loop_
 _atom_site_type_symbol
 _atom_site_label
 _atom_site_symmetry_multiplicity
 _atom_site_fract_x
 _atom_site_fract_y
 _atom_site_fract_z
 _atom_site_occupancy
  O  O1  1  0.841928  0.034305  0.459074  1
  O  O2  1  0.597007  0.159495  0.319583  1
  O  O3  1  0.659114  0.237740  0.466340  1
  O  O4  1  0.755225  0.331239  0.181047  1
  O  O5  1  0.637111  0.232791  0.192889  1
  O  O6  1  0.728598  0.126432  0.480485  1
  O  O7  1  0.404236  0.057117  0.432614  1
  O  O8  1  0.785512  0.033192  0.268607  1
  O  O9  1  0.663447  0.114856  0.175244  1
  O  O10  1  0.482480  0.159131  0.133666  1
  O  O11  1  0.795016  0.058285  0.089783  1
  O  O12  1  0.358925  0.070245  0.110392  1
  O  O13  1  0.697128  0.308099  0.339275  1
  Si  Si14  1  0.392268  0.127107  0.055090  1
  O  O15  1  0.352556  0.003788  0.261075  1
  O  O16  1  0.295331  0.169978  0.015895  1
  Si  Si17  1  0.593612  0.166513  0.204759  1
  Si  Si18  1  0.632393  0.168625  0.436308  1
  Si  Si19  1  0.663556  0.301838  0.222420  1
  Si  Si20  1  0.687745  0.306904  0.451101  1
  Si  Si21  1  0.719477  0.052865  0.163954  1
  O  O22  1  0.637461  0.000078  0.129936  1
  O  O23  1  0.538704  0.146160  0.480938  1
  Si  Si24  1  0.846328  0.034923  0.003253  1
  Si  Si25  1  0.353588  0.002617  0.147727  1
  O  O26  1  0.395692  0.093468  0.773756  1
  O  O27  1  0.159117  0.262114  0.966338  1
  Si  Si28  1  0.634238  0.004279  0.624089  1
  O  O29  1  0.255205  0.168608  0.681044  1
  O  O30  1  0.253103  0.056519  0.634950  1
  O  O31  1  0.137114  0.267061  0.692892  1
  O  O32  1  0.935210  0.075007  0.973779  1
  O  O33  1  0.430914  0.098790  0.964041  1
  O  O34  1  0.395697  0.122537  0.588657  1
  O  O35  1  0.068699  0.040492  0.657052  1
  O  O36  1  0.893155  0.097220  0.621754  1
  O  O37  1  0.999703  0.081038  0.807427  1
  O  O38  1  0.097012  0.145821  0.955032  1
  O  O39  1  0.544423  0.051554  0.587815  1
  O  O40  1  0.752237  0.025191  0.911402  1
  O  O41  1  0.731117  0.030813  0.589606  1
  O  O42  1  0.197110  0.191748  0.839273  1
  O  O43  1  0.065634  0.154428  0.692322  1
  O  O44  1  0.549277  0.032666  0.872262  1
  O  O45  1  0.795355  0.329868  0.515895  1
  O  O46  1  0.108100  0.029818  0.961615  1
  Si  Si47  1  0.032388  0.084741  0.925218  1
  Si  Si48  1  0.799268  0.073772  0.537875  1
  Si  Si49  1  0.167631  0.006509  0.637176  1
  Si  Si50  1  0.163539  0.198011  0.722418  1
  Si  Si51  1  0.187726  0.192947  0.951099  1
  Si  Si52  1  0.003648  0.092752  0.694870  1
  Si  Si53  1  0.468446  0.097907  0.520178  1
  Si  Si54  1  0.437014  0.056471  0.872577  1
  Si  Si55  1  0.327819  0.112767  0.668817  1
  Si  Si56  1  0.132415  0.331231  0.936311  1
  O  O57  1  0.658171  0.534305  0.041011  1
  O  O58  1  0.903091  0.659495  0.180502  1
  O  O59  1  0.895716  0.406378  0.273762  1
  Si  Si60  1  0.107831  0.627107  0.444995  1
  O  O61  1  0.753130  0.443329  0.134955  1
  O  O62  1  0.435242  0.424851  0.473783  1
  O  O63  1  0.930938  0.401060  0.464045  1
  O  O64  1  0.895723  0.377313  0.088664  1
  O  O65  1  0.568727  0.459361  0.157053  1
  O  O66  1  0.393179  0.402636  0.121764  1
  O  O67  1  0.771500  0.626431  0.019600  1
  O  O68  1  0.499735  0.418820  0.307433  1
  O  O69  1  0.095862  0.557116  0.067471  1
  O  O70  1  0.714586  0.533192  0.231478  1
  O  O71  1  0.836651  0.614856  0.324841  1
  O  O72  1  0.017618  0.659131  0.366419  1
  O  O73  1  0.597041  0.354035  0.455036  1
  O  O74  1  0.044448  0.448300  0.087822  1
  O  O75  1  0.252268  0.474666  0.411409  1
  O  O76  1  0.231141  0.469043  0.089602  1
  O  O77  1  0.705082  0.558285  0.410303  1
  O  O78  1  0.141173  0.570245  0.389693  1
  O  O79  1  0.565657  0.345426  0.192327  1
  O  O80  1  0.862637  0.500078  0.370149  1
  O  O81  1  0.049308  0.467180  0.372264  1
  O  O82  1  0.147543  0.503788  0.239010  1
  Si  Si83  1  0.653771  0.534923  0.496832  1
  Si  Si84  1  0.937043  0.443378  0.372580  1
  Si  Si85  1  0.299295  0.426081  0.037880  1
  Si  Si86  1  0.667662  0.493341  0.137179  1
  Si  Si87  1  0.503674  0.407103  0.194876  1
  Si  Si88  1  0.968469  0.401948  0.020186  1
  Si  Si89  1  0.780621  0.552865  0.336131  1
  Si  Si90  1  0.134264  0.495575  0.124093  1
  Si  Si91  1  0.146510  0.502617  0.352358  1
  Si  Si92  1  0.827843  0.387079  0.168824  1
  Si  Si93  1  0.532421  0.415116  0.425224  1
  O  O94  1  0.961395  0.646160  0.019148  1
  O  O95  1  0.608133  0.470039  0.461622  1
  Si  Si96  1  0.906486  0.666513  0.295326  1
  O  O97  1  0.341958  0.465544  0.959077  1
  O  O98  1  0.097035  0.340365  0.819587  1
  O  O99  1  0.104406  0.593468  0.726329  1
  Si  Si100  1  0.063084  0.556471  0.627508  1
  O  O101  1  0.246995  0.556519  0.865135  1
  O  O102  1  0.564888  0.575006  0.526306  1
  O  O103  1  0.069184  0.598790  0.536044  1
  O  O104  1  0.104402  0.622537  0.911428  1
  O  O105  1  0.431400  0.540492  0.843033  1
  O  O106  1  0.606944  0.597220  0.878331  1
  O  O107  1  0.228626  0.373419  0.980495  1
  O  O108  1  0.500396  0.581038  0.692658  1
  O  O109  1  0.904257  0.442738  0.932624  1
  O  O110  1  0.285543  0.466658  0.768611  1
  O  O111  1  0.163476  0.384994  0.675240  1
  O  O112  1  0.982499  0.340726  0.633674  1
  O  O113  1  0.403086  0.645821  0.545053  1
  O  O114  1  0.955675  0.551553  0.912271  1
  O  O115  1  0.747861  0.525191  0.588684  1
  O  O116  1  0.768981  0.530813  0.910480  1
  O  O117  1  0.295051  0.441569  0.589787  1
  O  O118  1  0.858938  0.429605  0.610389  1
  O  O119  1  0.434464  0.654428  0.807763  1
  O  O120  1  0.137494  0.499772  0.629938  1
  O  O121  1  0.950821  0.532666  0.627823  1
  O  O122  1  0.852589  0.496062  0.761081  1
  Si  Si123  1  0.892286  0.372744  0.555091  1
  O  O124  1  0.391998  0.529818  0.538470  1
  Si  Si125  1  0.346360  0.464934  0.503258  1
  Si  Si126  1  0.700830  0.573772  0.962210  1
  Si  Si127  1  0.332467  0.506509  0.862909  1
  Si  Si128  1  0.496451  0.592752  0.805215  1
  Si  Si129  1  0.031652  0.597907  0.979907  1
  Si  Si130  1  0.219510  0.446985  0.663957  1
  Si  Si131  1  0.865861  0.504279  0.875996  1
  Si  Si132  1  0.853616  0.497233  0.647731  1
  Si  Si133  1  0.172279  0.612767  0.831268  1
  Si  Si134  1  0.467710  0.584741  0.574867  1
  O  O135  1  0.038726  0.353698  0.980939  1
  Si  Si136  1  0.093634  0.333343  0.704763  1
  O  O137  1  0.604383  0.906378  0.226323  1
  O  O138  1  0.840984  0.737740  0.033746  1
  Si  Si139  1  0.365834  0.995575  0.375992  1
  O  O140  1  0.744873  0.831239  0.319038  1
  O  O141  1  0.746968  0.943329  0.365130  1
  O  O142  1  0.862987  0.732791  0.307197  1
  O  O143  1  0.064856  0.924851  0.026302  1
  O  O144  1  0.569160  0.901060  0.036040  1
  O  O145  1  0.604375  0.877313  0.411421  1
  O  O146  1  0.931371  0.959361  0.343032  1
  O  O147  1  0.106919  0.902636  0.378322  1
  O  O148  1  0.000363  0.918820  0.192652  1
  O  O149  1  0.903057  0.854035  0.045049  1
  O  O150  1  0.455650  0.948300  0.412263  1
  O  O151  1  0.247830  0.974666  0.088677  1
  O  O152  1  0.268958  0.969043  0.410483  1
  O  O153  1  0.802970  0.808099  0.160811  1
  O  O154  1  0.934442  0.845426  0.307758  1
  O  O155  1  0.450790  0.967180  0.127821  1
  O  O156  1  0.204767  0.669978  0.484190  1
  O  O157  1  0.891965  0.970039  0.038463  1
  Si  Si158  1  0.200804  0.926081  0.462206  1
  Si  Si159  1  0.832436  0.993341  0.362906  1
  Si  Si160  1  0.836542  0.801838  0.277665  1
  Si  Si161  1  0.812353  0.806904  0.048984  1
  Si  Si162  1  0.996424  0.907103  0.305210  1
  Si  Si163  1  0.531629  0.901948  0.479899  1
  Si  Si164  1  0.563055  0.943378  0.127505  1
  Si  Si165  1  0.672255  0.887079  0.331262  1
  Si  Si166  1  0.967677  0.915116  0.074862  1
  Si  Si167  1  0.867706  0.668625  0.063778  1
  O  O168  1  0.158140  0.965544  0.541008  1
  O  O169  1  0.403063  0.840365  0.680499  1
  O  O170  1  0.340982  0.762114  0.533747  1
  O  O171  1  0.244894  0.668608  0.819041  1
  O  O172  1  0.362984  0.767061  0.807194  1
  O  O173  1  0.271472  0.873419  0.519590  1
  O  O174  1  0.595842  0.942738  0.567461  1
  O  O175  1  0.214555  0.966657  0.731474  1
  O  O176  1  0.336622  0.884994  0.824845  1
  O  O177  1  0.517599  0.840726  0.866411  1
  O  O178  1  0.205047  0.941569  0.910298  1
  O  O179  1  0.641161  0.929605  0.889696  1
  O  O180  1  0.302988  0.691748  0.660812  1
  Si  Si181  1  0.153738  0.964934  0.996827  1
  O  O182  1  0.647509  0.996062  0.739004  1
  O  O183  1  0.704744  0.829868  0.984191  1
  Si  Si184  1  0.406465  0.833343  0.795323  1
  Si  Si185  1  0.367683  0.831231  0.563774  1
  Si  Si186  1  0.336559  0.698011  0.777667  1
  Si  Si187  1  0.312372  0.692947  0.548986  1
  Si  Si188  1  0.280588  0.946985  0.836128  1
  Si  Si189  1  0.607812  0.872744  0.944994  1
  O  O190  1  0.362604  0.999772  0.870147  1
  O  O191  1  0.461372  0.853698  0.519146  1
  Si  Si192  1  0.646482  0.997233  0.852354  1
