# generated using pymatgen
data_SiO2
_symmetry_space_group_name_H-M   'P 1'
_cell_length_a   9.77083545
_cell_length_b   13.97630528
_cell_length_c   27.97530112
_cell_angle_alpha   90.00000000
_cell_angle_beta   90.00000000
_cell_angle_gamma   90.00000000
_symmetry_Int_Tables_number   1
_chemical_formula_structural   SiO2
_chemical_formula_sum   'Si64 O128'
_cell_volume   3820.31213228
_cell_formula_units_Z   64
loop_
 _symmetry_equiv_pos_site_id
 _symmetry_equiv_pos_as_xyz
  1  'x, y, z'
loop_
 _atom_site_type_symbol
 _atom_site_label
 _atom_site_symmetry_multiplicity
 _atom_site_fract_x
 _atom_site_fract_y
 _atom_site_fract_z
 _atom_site_occupancy
  O  O1  1  0.176289  0.074007  0.414358  1
  O  O2  1  0.676269  0.573990  0.414360  1
  O  O3  1  0.823830  0.073990  0.414354  1
  O  O4  1  0.323805  0.574003  0.414367  1
  O  O5  1  0.176286  0.925779  0.914357  1
  O  O6  1  0.676268  0.425798  0.914361  1
  O  O7  1  0.823832  0.925792  0.914353  1
  O  O8  1  0.323809  0.425785  0.914368  1
  O  O9  1  0.823818  0.925771  0.585674  1
  O  O10  1  0.323831  0.425779  0.585687  1
  O  O11  1  0.176281  0.925782  0.585678  1
  O  O12  1  0.676290  0.425770  0.585681  1
  O  O13  1  0.823823  0.073980  0.085674  1
  O  O14  1  0.323831  0.573979  0.085688  1
  O  O15  1  0.176283  0.073974  0.085677  1
  O  O16  1  0.676286  0.573986  0.085682  1
  O  O17  1  0.191123  0.243923  0.375200  1
  O  O18  1  0.691121  0.743907  0.375197  1
  O  O19  1  0.808973  0.243907  0.375197  1
  O  O20  1  0.308973  0.743924  0.375206  1
  O  O21  1  0.191122  0.755863  0.875200  1
  O  O22  1  0.691123  0.255878  0.875203  1
  O  O23  1  0.808972  0.755878  0.875194  1
  O  O24  1  0.308974  0.255863  0.875209  1
  O  O25  1  0.808982  0.755853  0.624836  1
  O  O26  1  0.308980  0.255863  0.624846  1
  O  O27  1  0.191130  0.755863  0.624841  1
  O  O28  1  0.691130  0.255853  0.624838  1
  O  O29  1  0.808982  0.243901  0.124831  1
  O  O30  1  0.308980  0.743895  0.124845  1
  O  O31  1  0.191133  0.243895  0.124838  1
  O  O32  1  0.691131  0.743902  0.124841  1
  O  O33  1  0.000061  0.128173  0.354254  1
  O  O34  1  0.500030  0.628170  0.354262  1
  O  O35  1  0.000061  0.871613  0.854252  1
  O  O36  1  0.500034  0.371615  0.854264  1
  O  O37  1  0.000048  0.871604  0.645778  1
  O  O38  1  0.500065  0.371600  0.645786  1
  O  O39  1  0.000051  0.128154  0.145776  1
  O  O40  1  0.500061  0.628155  0.145788  1
  O  O41  1  0.249141  0.087141  0.327421  1
  O  O42  1  0.749096  0.587122  0.327420  1
  O  O43  1  0.750990  0.087126  0.327416  1
  O  O44  1  0.250951  0.587144  0.327430  1
  O  O45  1  0.249145  0.912645  0.827422  1
  O  O46  1  0.749103  0.412659  0.827424  1
  O  O47  1  0.750989  0.912662  0.827416  1
  O  O48  1  0.250953  0.412642  0.827432  1
  O  O49  1  0.750973  0.912635  0.672612  1
  O  O50  1  0.250993  0.412646  0.672626  1
  O  O51  1  0.249118  0.912646  0.672617  1
  O  O52  1  0.749144  0.412633  0.672617  1
  O  O53  1  0.750973  0.087124  0.172610  1
  O  O54  1  0.250983  0.587112  0.172624  1
  O  O55  1  0.249124  0.087113  0.172614  1
  O  O56  1  0.749141  0.587119  0.172618  1
  O  O57  1  0.676651  0.913264  0.336031  1
  O  O58  1  0.176628  0.413281  0.336044  1
  O  O59  1  0.323468  0.913276  0.336038  1
  O  O60  1  0.823449  0.413264  0.336037  1
  O  O61  1  0.676651  0.086526  0.836032  1
  O  O62  1  0.176629  0.586506  0.836043  1
  O  O63  1  0.323471  0.086514  0.836039  1
  O  O64  1  0.823452  0.586522  0.836037  1
  O  O65  1  0.323462  0.086505  0.664003  1
  O  O66  1  0.823467  0.586498  0.664002  1
  O  O67  1  0.676641  0.086497  0.663996  1
  O  O68  1  0.176646  0.586510  0.664009  1
  O  O69  1  0.323466  0.913252  0.164003  1
  O  O70  1  0.823467  0.413250  0.163999  1
  O  O71  1  0.676643  0.913258  0.163997  1
  O  O72  1  0.176645  0.413245  0.164008  1
  O  O73  1  0.686201  0.990618  0.250014  1
  O  O74  1  0.186188  0.490619  0.250027  1
  O  O75  1  0.313915  0.990620  0.250019  1
  O  O76  1  0.813904  0.490609  0.250020  1
  O  O77  1  0.686197  0.009160  0.750014  1
  O  O78  1  0.186191  0.509151  0.750028  1
  O  O79  1  0.313913  0.009155  0.750020  1
  O  O80  1  0.813905  0.509153  0.750019  1
  O  O81  1  0.500062  0.032264  0.309822  1
  O  O82  1  0.000031  0.532267  0.309828  1
  O  O83  1  0.500063  0.967526  0.809824  1
  O  O84  1  0.000033  0.467516  0.809830  1
  O  O85  1  0.500049  0.967506  0.690212  1
  O  O86  1  0.000062  0.467509  0.690218  1
  O  O87  1  0.500053  0.032251  0.190209  1
  O  O88  1  0.000057  0.532240  0.190215  1
  O  O89  1  0.000067  0.955217  0.442617  1
  O  O90  1  0.500034  0.455214  0.442622  1
  O  O91  1  0.000064  0.044565  0.942619  1
  O  O92  1  0.500033  0.544576  0.942624  1
  O  O93  1  0.000044  0.044560  0.557418  1
  O  O94  1  0.500063  0.544557  0.557423  1
  O  O95  1  0.000050  0.955192  0.057416  1
  O  O96  1  0.500062  0.455202  0.057421  1
  O  O97  1  0.750118  0.900455  0.423027  1
  O  O98  1  0.250076  0.400469  0.423041  1
  O  O99  1  0.250027  0.900478  0.423036  1
  O  O100  1  0.749981  0.400453  0.423032  1
  O  O101  1  0.750113  0.099324  0.923030  1
  O  O102  1  0.250071  0.599316  0.923042  1
  O  O103  1  0.250026  0.099306  0.923037  1
  O  O104  1  0.749981  0.599334  0.923032  1
  O  O105  1  0.249991  0.099321  0.577009  1
  O  O106  1  0.750024  0.599301  0.577004  1
  O  O107  1  0.750085  0.099304  0.576999  1
  O  O108  1  0.250114  0.599313  0.577014  1
  O  O109  1  0.250001  0.900438  0.077007  1
  O  O110  1  0.750025  0.400458  0.077001  1
  O  O111  1  0.750092  0.900447  0.077000  1
  O  O112  1  0.250113  0.400447  0.077012  1
  O  O113  1  0.808872  0.999881  0.500014  1
  O  O114  1  0.308866  0.499888  0.500027  1
  O  O115  1  0.191238  0.999902  0.500020  1
  O  O116  1  0.691232  0.499878  0.500019  1
  O  O117  1  0.808873  0.999880  0.000015  1
  O  O118  1  0.308864  0.499887  0.000027  1
  O  O119  1  0.191240  0.999868  0.000019  1
  O  O120  1  0.691231  0.499900  0.000020  1
  O  O121  1  0.500063  0.860070  0.396126  1
  O  O122  1  0.000033  0.360065  0.396132  1
  O  O123  1  0.500059  0.139713  0.896126  1
  O  O124  1  0.000026  0.639720  0.896128  1
  O  O125  1  0.500043  0.139709  0.603909  1
  O  O126  1  0.000071  0.639701  0.603916  1
  O  O127  1  0.500054  0.860047  0.103912  1
  O  O128  1  0.000065  0.360054  0.103915  1
  Si  Si129  1  0.157344  0.134806  0.367170  1
  Si  Si130  1  0.657318  0.634792  0.367173  1
  Si  Si131  1  0.842775  0.134794  0.367168  1
  Si  Si132  1  0.342749  0.634805  0.367180  1
  Si  Si133  1  0.157344  0.864979  0.867170  1
  Si  Si134  1  0.657320  0.364992  0.867176  1
  Si  Si135  1  0.842775  0.864991  0.867166  1
  Si  Si136  1  0.342752  0.364981  0.867182  1
  Si  Si137  1  0.842765  0.864971  0.632862  1
  Si  Si138  1  0.342778  0.364978  0.632874  1
  Si  Si139  1  0.157334  0.864979  0.632865  1
  Si  Si140  1  0.657347  0.364969  0.632867  1
  Si  Si141  1  0.842768  0.134785  0.132859  1
  Si  Si142  1  0.342775  0.634780  0.132874  1
  Si  Si143  1  0.157337  0.134779  0.132863  1
  Si  Si144  1  0.657343  0.634786  0.132869  1
  Si  Si145  1  0.657300  0.006940  0.305014  1
  Si  Si146  1  0.157273  0.506953  0.305025  1
  Si  Si147  1  0.342821  0.006949  0.305018  1
  Si  Si148  1  0.842795  0.506939  0.305019  1
  Si  Si149  1  0.657300  0.992849  0.805014  1
  Si  Si150  1  0.157274  0.492831  0.805026  1
  Si  Si151  1  0.342822  0.992838  0.805019  1
  Si  Si152  1  0.842797  0.492841  0.805020  1
  Si  Si153  1  0.342811  0.992829  0.695020  1
  Si  Si154  1  0.842821  0.492825  0.695021  1
  Si  Si155  1  0.657289  0.992825  0.695016  1
  Si  Si156  1  0.157299  0.492831  0.695028  1
  Si  Si157  1  0.342815  0.006931  0.195019  1
  Si  Si158  1  0.842817  0.506925  0.195021  1
  Si  Si159  1  0.657293  0.006936  0.195015  1
  Si  Si160  1  0.157295  0.506924  0.195026  1
  Si  Si161  1  0.842691  0.980867  0.445749  1
  Si  Si162  1  0.342663  0.480876  0.445760  1
  Si  Si163  1  0.157436  0.980884  0.445754  1
  Si  Si164  1  0.657409  0.480865  0.445754  1
  Si  Si165  1  0.842689  0.018912  0.945751  1
  Si  Si166  1  0.342663  0.518911  0.945761  1
  Si  Si167  1  0.157435  0.018899  0.945754  1
  Si  Si168  1  0.657408  0.518923  0.945755  1
  Si  Si169  1  0.157419  0.018909  0.554285  1
  Si  Si170  1  0.657434  0.518895  0.554286  1
  Si  Si171  1  0.842673  0.018897  0.554280  1
  Si  Si172  1  0.342688  0.518902  0.554292  1
  Si  Si173  1  0.157424  0.980847  0.054284  1
  Si  Si174  1  0.657433  0.480866  0.054285  1
  Si  Si175  1  0.842679  0.980854  0.054280  1
  Si  Si176  1  0.342688  0.480858  0.054291  1
  Si  Si177  1  0.342612  0.852973  0.383461  1
  Si  Si178  1  0.842586  0.352958  0.383460  1
  Si  Si179  1  0.657512  0.852960  0.383454  1
  Si  Si180  1  0.157487  0.352970  0.383465  1
  Si  Si181  1  0.342611  0.146813  0.883462  1
  Si  Si182  1  0.842584  0.646826  0.883458  1
  Si  Si183  1  0.657512  0.146824  0.883458  1
  Si  Si184  1  0.157485  0.646815  0.883464  1
  Si  Si185  1  0.657497  0.146804  0.616575  1
  Si  Si186  1  0.157513  0.646810  0.616586  1
  Si  Si187  1  0.342597  0.146813  0.616582  1
  Si  Si188  1  0.842612  0.646803  0.616579  1
  Si  Si189  1  0.657502  0.852950  0.116577  1
  Si  Si190  1  0.157513  0.352947  0.116584  1
  Si  Si191  1  0.342601  0.852944  0.116581  1
  Si  Si192  1  0.842611  0.352953  0.116576  1
