# generated using pymatgen
data_SiO2
_symmetry_space_group_name_H-M   'P 1'
_cell_length_a   9.74974582
_cell_length_b   23.37288685
_cell_length_c   19.81815095
_cell_angle_alpha   90.00000000
_cell_angle_beta   90.00000000
_cell_angle_gamma   90.00000000
_symmetry_Int_Tables_number   1
_chemical_formula_structural   SiO2
_chemical_formula_sum   'Si80 O160'
_cell_volume   4516.1544069
_cell_formula_units_Z   80
loop_
 _symmetry_equiv_pos_site_id
 _symmetry_equiv_pos_as_xyz
  1  'x, y, z'
loop_
 _atom_site_type_symbol
 _atom_site_label
 _atom_site_symmetry_multiplicity
 _atom_site_fract_x
 _atom_site_fract_y
 _atom_site_fract_z
 _atom_site_occupancy
  O  O1  1  0.634509  0.355481  0.346250  1
  O  O2  1  0.135135  0.855459  0.346203  1
  O  O3  1  0.365049  0.355579  0.346385  1
  O  O4  1  0.865687  0.855596  0.346459  1
  O  O5  1  0.634662  0.644502  0.846176  1
  O  O6  1  0.134581  0.144405  0.846224  1
  O  O7  1  0.365196  0.644194  0.846495  1
  O  O8  1  0.865127  0.144314  0.846442  1
  O  O9  1  0.365119  0.644318  0.653658  1
  O  O10  1  0.865601  0.144315  0.653599  1
  O  O11  1  0.634578  0.644426  0.653796  1
  O  O12  1  0.135054  0.144446  0.653830  1
  O  O13  1  0.365106  0.355663  0.153559  1
  O  O14  1  0.865222  0.855575  0.153585  1
  O  O15  1  0.634572  0.355368  0.153864  1
  O  O16  1  0.134672  0.855473  0.153828  1
  O  O17  1  0.871453  0.308600  0.345720  1
  O  O18  1  0.371914  0.808474  0.346617  1
  O  O19  1  0.128469  0.308547  0.346989  1
  O  O20  1  0.628945  0.808677  0.346099  1
  O  O21  1  0.871742  0.691459  0.845850  1
  O  O22  1  0.371484  0.191418  0.846140  1
  O  O23  1  0.128766  0.691172  0.846849  1
  O  O24  1  0.628514  0.191246  0.846533  1
  O  O25  1  0.128545  0.691354  0.653004  1
  O  O26  1  0.628849  0.191238  0.653953  1
  O  O27  1  0.871530  0.691308  0.654311  1
  O  O28  1  0.371823  0.191440  0.653376  1
  O  O29  1  0.128668  0.308675  0.153184  1
  O  O30  1  0.628620  0.808642  0.153450  1
  O  O31  1  0.871644  0.308402  0.154161  1
  O  O32  1  0.371591  0.808458  0.153884  1
  O  O33  1  0.869455  0.415262  0.344462  1
  O  O34  1  0.370060  0.915128  0.344124  1
  O  O35  1  0.129953  0.415204  0.344111  1
  O  O36  1  0.630572  0.915337  0.344447  1
  O  O37  1  0.869532  0.584774  0.844278  1
  O  O38  1  0.369663  0.084729  0.844198  1
  O  O39  1  0.130033  0.584536  0.844271  1
  O  O40  1  0.630157  0.084607  0.844366  1
  O  O41  1  0.130013  0.584698  0.655946  1
  O  O42  1  0.630486  0.084575  0.655619  1
  O  O43  1  0.869516  0.584648  0.655591  1
  O  O44  1  0.369982  0.084783  0.655943  1
  O  O45  1  0.129949  0.415317  0.155794  1
  O  O46  1  0.630249  0.915281  0.155695  1
  O  O47  1  0.869459  0.415093  0.155785  1
  O  O48  1  0.369751  0.915149  0.155874  1
  O  O49  1  0.795625  0.362162  0.449171  1
  O  O50  1  0.295162  0.863118  0.449368  1
  O  O51  1  0.205087  0.363440  0.449526  1
  O  O52  1  0.704537  0.862502  0.449347  1
  O  O53  1  0.795497  0.637711  0.949086  1
  O  O54  1  0.295316  0.137393  0.949135  1
  O  O55  1  0.204876  0.636479  0.949632  1
  O  O56  1  0.704638  0.136832  0.949555  1
  O  O57  1  0.205187  0.636405  0.550510  1
  O  O58  1  0.704469  0.137408  0.550717  1
  O  O59  1  0.795675  0.637741  0.550871  1
  O  O60  1  0.295075  0.136736  0.550668  1
  O  O61  1  0.204791  0.363402  0.050426  1
  O  O62  1  0.704754  0.863115  0.050470  1
  O  O63  1  0.795430  0.362213  0.050966  1
  O  O64  1  0.295391  0.862517  0.050917  1
  O  O65  1  0.636010  0.644582  0.449554  1
  O  O66  1  0.134539  0.145204  0.449816  1
  O  O67  1  0.365487  0.645203  0.449625  1
  O  O68  1  0.864024  0.144576  0.449387  1
  O  O69  1  0.635403  0.354999  0.949893  1
  O  O70  1  0.135397  0.855045  0.949866  1
  O  O71  1  0.364897  0.354993  0.949352  1
  O  O72  1  0.864879  0.854938  0.949354  1
  O  O73  1  0.365469  0.354726  0.550393  1
  O  O74  1  0.864030  0.855351  0.550700  1
  O  O75  1  0.636001  0.355349  0.550504  1
  O  O76  1  0.134557  0.854715  0.550209  1
  O  O77  1  0.364949  0.644852  0.050729  1
  O  O78  1  0.864816  0.144904  0.050666  1
  O  O79  1  0.635469  0.644852  0.050167  1
  O  O80  1  0.135337  0.144791  0.050197  1
  O  O81  1  0.870134  0.581963  0.448302  1
  O  O82  1  0.369054  0.083306  0.446182  1
  O  O83  1  0.130834  0.583355  0.445902  1
  O  O84  1  0.629772  0.081997  0.448031  1
  O  O85  1  0.869346  0.417653  0.948110  1
  O  O86  1  0.369466  0.917644  0.947833  1
  O  O87  1  0.130077  0.416821  0.946070  1
  O  O88  1  0.630209  0.916812  0.946242  1
  O  O89  1  0.130833  0.416580  0.554093  1
  O  O90  1  0.629766  0.917926  0.552014  1
  O  O91  1  0.870132  0.417968  0.551713  1
  O  O92  1  0.369050  0.916614  0.553829  1
  O  O93  1  0.130122  0.583026  0.053957  1
  O  O94  1  0.630170  0.083022  0.053718  1
  O  O95  1  0.869397  0.582202  0.051906  1
  O  O96  1  0.369422  0.082179  0.052138  1
  O  O97  1  0.872148  0.690593  0.447504  1
  O  O98  1  0.370513  0.191764  0.448664  1
  O  O99  1  0.129565  0.691816  0.448761  1
  O  O100  1  0.627936  0.190642  0.447573  1
  O  O101  1  0.871637  0.308969  0.947889  1
  O  O102  1  0.371526  0.808974  0.947986  1
  O  O103  1  0.129080  0.308409  0.948335  1
  O  O104  1  0.628978  0.808392  0.948244  1
  O  O105  1  0.129533  0.308116  0.551341  1
  O  O106  1  0.627956  0.809277  0.552488  1
  O  O107  1  0.872123  0.309331  0.552544  1
  O  O108  1  0.370540  0.808157  0.551425  1
  O  O109  1  0.129145  0.691444  0.051739  1
  O  O110  1  0.628907  0.191448  0.051854  1
  O  O111  1  0.871710  0.690886  0.052204  1
  O  O112  1  0.371470  0.190860  0.052108  1
  O  O113  1  0.999362  0.466006  0.250027  1
  O  O114  1  0.500311  0.966007  0.250031  1
  O  O115  1  0.999397  0.533882  0.750016  1
  O  O116  1  0.500230  0.033887  0.750023  1
  O  O117  1  0.999735  0.507354  0.373372  1
  O  O118  1  0.499827  0.007353  0.373373  1
  O  O119  1  0.998858  0.492536  0.873364  1
  O  O120  1  0.499295  0.992555  0.873368  1
  O  O121  1  0.999768  0.492555  0.626663  1
  O  O122  1  0.499762  0.992557  0.626674  1
  O  O123  1  0.998842  0.507321  0.126666  1
  O  O124  1  0.499325  0.007334  0.126684  1
  O  O125  1  0.006445  0.499978  0.500022  1
  O  O126  1  0.493972  0.999968  0.500027  1
  O  O127  1  0.004541  0.499922  0.000016  1
  O  O128  1  0.504338  0.999880  0.000044  1
  O  O129  1  0.000359  0.766288  0.373198  1
  O  O130  1  0.499647  0.266293  0.373206  1
  O  O131  1  0.999843  0.233583  0.873224  1
  O  O132  1  0.499564  0.733574  0.873229  1
  O  O133  1  0.000280  0.233622  0.626854  1
  O  O134  1  0.499702  0.733611  0.626850  1
  O  O135  1  0.999929  0.766293  0.126833  1
  O  O136  1  0.499488  0.266287  0.126835  1
  O  O137  1  0.997307  0.773475  0.501397  1
  O  O138  1  0.502356  0.273457  0.501416  1
  O  O139  1  0.999278  0.226468  0.001467  1
  O  O140  1  0.499217  0.726465  0.001469  1
  O  O141  1  0.997367  0.226461  0.498650  1
  O  O142  1  0.502334  0.726474  0.498631  1
  O  O143  1  0.999305  0.773376  0.998587  1
  O  O144  1  0.499167  0.273369  0.998593  1
  O  O145  1  0.001864  0.259529  0.250024  1
  O  O146  1  0.500406  0.759542  0.250019  1
  O  O147  1  0.002013  0.740344  0.750008  1
  O  O148  1  0.500222  0.240370  0.750007  1
  O  O149  1  0.999276  0.216271  0.373476  1
  O  O150  1  0.501148  0.716271  0.373466  1
  O  O151  1  0.000719  0.783631  0.873448  1
  O  O152  1  0.500544  0.283642  0.873457  1
  O  O153  1  0.999353  0.783641  0.626571  1
  O  O154  1  0.501082  0.283653  0.626572  1
  O  O155  1  0.000614  0.216212  0.126598  1
  O  O156  1  0.500637  0.716225  0.126599  1
  O  O157  1  0.999772  0.807735  0.250018  1
  O  O158  1  0.499303  0.307724  0.250018  1
  O  O159  1  0.999725  0.192165  0.750028  1
  O  O160  1  0.499358  0.692159  0.750036  1
  Si  Si161  1  0.787460  0.361839  0.370598  1
  Si  Si162  1  0.287888  0.861937  0.370775  1
  Si  Si163  1  0.212297  0.362116  0.370938  1
  Si  Si164  1  0.712730  0.862021  0.370781  1
  Si  Si165  1  0.787607  0.638177  0.870516  1
  Si  Si166  1  0.287509  0.138027  0.870570  1
  Si  Si167  1  0.212414  0.637641  0.871037  1
  Si  Si168  1  0.712322  0.137824  0.870959  1
  Si  Si169  1  0.212375  0.637773  0.629097  1
  Si  Si170  1  0.712642  0.137892  0.629283  1
  Si  Si171  1  0.787526  0.638068  0.629445  1
  Si  Si172  1  0.287806  0.137962  0.629260  1
  Si  Si173  1  0.212322  0.362213  0.129021  1
  Si  Si174  1  0.712422  0.862078  0.129065  1
  Si  Si175  1  0.787520  0.361698  0.129534  1
  Si  Si176  1  0.287602  0.861855  0.129483  1
  Si  Si177  1  0.789562  0.636690  0.472131  1
  Si  Si178  1  0.288224  0.137342  0.471928  1
  Si  Si179  1  0.211827  0.637309  0.471772  1
  Si  Si180  1  0.710483  0.136654  0.471974  1
  Si  Si181  1  0.788994  0.362949  0.972243  1
  Si  Si182  1  0.288995  0.863031  0.972188  1
  Si  Si183  1  0.211250  0.362836  0.971664  1
  Si  Si184  1  0.711247  0.862754  0.971706  1
  Si  Si185  1  0.211795  0.362604  0.528265  1
  Si  Si186  1  0.710496  0.863267  0.528091  1
  Si  Si187  1  0.789548  0.363235  0.527911  1
  Si  Si188  1  0.288252  0.862563  0.528108  1
  Si  Si189  1  0.211308  0.637018  0.028395  1
  Si  Si190  1  0.711175  0.137107  0.028318  1
  Si  Si191  1  0.789061  0.636920  0.027810  1
  Si  Si192  1  0.288938  0.136815  0.027863  1
  Si  Si193  1  0.999651  0.452658  0.327534  1
  Si  Si194  1  0.500216  0.952656  0.327537  1
  Si  Si195  1  0.999562  0.547230  0.827523  1
  Si  Si196  1  0.499852  0.047244  0.827527  1
  Si  Si197  1  0.999704  0.547245  0.672513  1
  Si  Si198  1  0.500135  0.047250  0.672518  1
  Si  Si199  1  0.999496  0.452638  0.172524  1
  Si  Si200  1  0.499936  0.952643  0.172528  1
  Si  Si201  1  0.001402  0.543197  0.440151  1
  Si  Si202  1  0.498501  0.043193  0.440156  1
  Si  Si203  1  0.000196  0.456695  0.940144  1
  Si  Si204  1  0.500386  0.956692  0.940127  1
  Si  Si205  1  0.001401  0.456732  0.559867  1
  Si  Si206  1  0.498488  0.956727  0.559882  1
  Si  Si207  1  0.000232  0.543156  0.059881  1
  Si  Si208  1  0.500357  0.043147  0.059880  1
  Si  Si209  1  0.999906  0.730971  0.440677  1
  Si  Si210  1  0.500105  0.230971  0.440676  1
  Si  Si211  1  0.999928  0.268918  0.940685  1
  Si  Si212  1  0.499771  0.768914  0.940687  1
  Si  Si213  1  0.999876  0.268952  0.559384  1
  Si  Si214  1  0.500132  0.768944  0.559387  1
  Si  Si215  1  0.000000  0.730941  0.059384  1
  Si  Si216  1  0.499702  0.230931  0.059390  1
  Si  Si217  1  0.000300  0.271214  0.328000  1
  Si  Si218  1  0.500478  0.771220  0.327999  1
  Si  Si219  1  0.000826  0.728672  0.827989  1
  Si  Si220  1  0.500268  0.228692  0.827987  1
  Si  Si221  1  0.000394  0.728686  0.672027  1
  Si  Si222  1  0.500366  0.228696  0.672026  1
  Si  Si223  1  0.000710  0.271183  0.172039  1
  Si  Si224  1  0.500397  0.771196  0.172035  1
  Si  Si225  1  0.998969  0.180890  0.440815  1
  Si  Si226  1  0.501112  0.680891  0.440807  1
  Si  Si227  1  0.000291  0.818995  0.940806  1
  Si  Si228  1  0.500232  0.318998  0.940820  1
  Si  Si229  1  0.998987  0.819036  0.559241  1
  Si  Si230  1  0.501092  0.319042  0.559237  1
  Si  Si231  1  0.000226  0.180843  0.059243  1
  Si  Si232  1  0.500291  0.680847  0.059252  1
  Si  Si233  1  0.000252  0.821546  0.327715  1
  Si  Si234  1  0.499658  0.321545  0.327712  1
  Si  Si235  1  0.999730  0.178341  0.827722  1
  Si  Si236  1  0.499631  0.678330  0.827730  1
  Si  Si237  1  0.000180  0.178361  0.672330  1
  Si  Si238  1  0.499721  0.678355  0.672337  1
  Si  Si239  1  0.999809  0.821544  0.172321  1
  Si  Si240  1  0.499553  0.321538  0.172321  1
