# generated using pymatgen
data_SiO2
_symmetry_space_group_name_H-M   'P 1'
_cell_length_a   12.26867835
_cell_length_b   12.26407606
_cell_length_c   30.74240839
_cell_angle_alpha   90.00000000
_cell_angle_beta   90.00000000
_cell_angle_gamma   120.00000000
_symmetry_Int_Tables_number   1
_chemical_formula_structural   SiO2
_chemical_formula_sum   'Si72 O144'
_cell_volume   4005.90951329
_cell_formula_units_Z   72
loop_
 _symmetry_equiv_pos_site_id
 _symmetry_equiv_pos_as_xyz
  1  'x, y, z'
loop_
 _atom_site_type_symbol
 _atom_site_label
 _atom_site_symmetry_multiplicity
 _atom_site_fract_x
 _atom_site_fract_y
 _atom_site_fract_z
 _atom_site_occupancy
  O  O1  1  0.555627  0.775596  0.249787  1
  O  O2  1  0.221029  0.777079  0.249624  1
  O  O3  1  0.222697  0.442846  0.249653  1
  O  O4  1  0.459585  0.918868  0.248608  1
  O  O5  1  0.079119  0.538584  0.248468  1
  O  O6  1  0.461412  0.536923  0.248226  1
  O  O7  1  0.665385  0.978757  0.208476  1
  O  O8  1  0.016213  0.684402  0.209143  1
  O  O9  1  0.313344  0.328552  0.209210  1
  O  O10  1  0.019111  0.332240  0.208572  1
  O  O11  1  0.313980  0.981433  0.208926  1
  O  O12  1  0.669787  0.684770  0.209311  1
  O  O13  1  0.776936  0.886909  0.166839  1
  O  O14  1  0.111064  0.886870  0.166875  1
  O  O15  1  0.110778  0.220515  0.166956  1
  O  O16  1  0.873091  0.745039  0.165227  1
  O  O17  1  0.253189  0.124852  0.165372  1
  O  O18  1  0.872755  0.124883  0.168498  1
  O  O19  1  0.665101  0.683053  0.125439  1
  O  O20  1  0.314137  0.978843  0.125036  1
  O  O21  1  0.016172  0.328583  0.124713  1
  O  O22  1  0.314274  0.332193  0.125356  1
  O  O23  1  0.019025  0.683364  0.125265  1
  O  O24  1  0.669037  0.981638  0.124586  1
  O  O25  1  0.555947  0.776885  0.083996  1
  O  O26  1  0.222140  0.775336  0.083814  1
  O  O27  1  0.220592  0.441533  0.083972  1
  O  O28  1  0.461262  0.920567  0.084858  1
  O  O29  1  0.076818  0.536107  0.084873  1
  O  O30  1  0.459575  0.537793  0.084742  1
  O  O31  1  0.664371  0.978476  0.040962  1
  O  O32  1  0.019204  0.682321  0.041557  1
  O  O33  1  0.314699  0.332904  0.041608  1
  O  O34  1  0.018859  0.332734  0.041108  1
  O  O35  1  0.315154  0.978002  0.041322  1
  O  O36  1  0.664428  0.682532  0.041686  1
  O  O37  1  0.237021  0.116657  0.006440  1
  O  O38  1  0.881200  0.116149  0.006077  1
  O  O39  1  0.880575  0.760099  0.006513  1
  Si  Si40  1  0.747130  0.745209  0.000371  1
  Si  Si41  1  0.585099  0.666076  0.083632  1
  Si  Si42  1  0.332089  0.915873  0.083405  1
  Si  Si43  1  0.080192  0.410912  0.083394  1
  Si  Si44  1  0.746928  0.746554  0.166860  1
  Si  Si45  1  0.251452  0.997011  0.166687  1
  Si  Si46  1  0.000669  0.250839  0.167032  1
  Si  Si47  1  0.251188  0.250803  0.166893  1
  Si  Si48  1  0.000756  0.746523  0.166772  1
  Si  Si49  1  0.746685  0.997077  0.166929  1
  Si  Si50  1  0.586493  0.917318  0.083324  1
  Si  Si51  1  0.081638  0.665395  0.083546  1
  Si  Si52  1  0.331306  0.412284  0.083566  1
  Si  Si53  1  0.251437  0.997784  0.000241  1
  Si  Si54  1  0.251979  0.250194  0.000294  1
  Si  Si55  1  0.999380  0.745629  0.000373  1
  O  O56  1  0.333189  0.018066  0.375273  1
  O  O57  1  0.980813  0.312965  0.375008  1
  O  O58  1  0.686624  0.666539  0.375561  1
  O  O59  1  0.980784  0.665912  0.375440  1
  O  O60  1  0.685955  0.018170  0.374958  1
  O  O61  1  0.332438  0.312504  0.375467  1
  O  O62  1  0.117871  0.880889  0.339201  1
  O  O63  1  0.117580  0.234489  0.339026  1
  O  O64  1  0.764182  0.881128  0.338967  1
  O  O65  1  0.315794  0.978999  0.292530  1
  O  O66  1  0.020120  0.334708  0.292234  1
  O  O67  1  0.663696  0.682035  0.292824  1
  O  O68  1  0.019560  0.682467  0.292714  1
  O  O69  1  0.664007  0.978604  0.292171  1
  O  O70  1  0.316229  0.334769  0.292721  1
  O  O71  1  0.237576  0.117642  0.327262  1
  O  O72  1  0.880915  0.117822  0.326890  1
  O  O73  1  0.881098  0.761146  0.327249  1
  O  O74  1  0.444678  0.221299  0.416877  1
  O  O75  1  0.777999  0.221179  0.416748  1
  O  O76  1  0.777714  0.554212  0.417031  1
  O  O77  1  0.538172  0.074861  0.416450  1
  O  O78  1  0.924418  0.460989  0.416577  1
  O  O79  1  0.537887  0.461131  0.416365  1
  O  O80  1  0.334487  0.018334  0.458681  1
  O  O81  1  0.981093  0.313474  0.458485  1
  O  O82  1  0.685087  0.664400  0.458941  1
  O  O83  1  0.980728  0.664683  0.458837  1
  O  O84  1  0.685527  0.018153  0.458443  1
  O  O85  1  0.334565  0.313948  0.458860  1
  O  O86  1  0.118744  0.880713  0.494273  1
  O  O87  1  0.118461  0.235331  0.494281  1
  O  O88  1  0.763422  0.880666  0.494234  1
  Si  Si89  1  0.252102  0.998842  0.333611  1
  Si  Si90  1  0.999822  0.251011  0.333317  1
  Si  Si91  1  0.747890  0.746776  0.333690  1
  Si  Si92  1  0.999857  0.746640  0.333693  1
  Si  Si93  1  0.747700  0.998945  0.333257  1
  Si  Si94  1  0.251903  0.250877  0.333675  1
  Si  Si95  1  0.584859  0.915650  0.250171  1
  Si  Si96  1  0.332486  0.412120  0.250254  1
  Si  Si97  1  0.414414  0.080931  0.416838  1
  Si  Si98  1  0.918370  0.331109  0.416729  1
  Si  Si99  1  0.667847  0.584780  0.417014  1
  Si  Si100  1  0.918094  0.584648  0.417007  1
  Si  Si101  1  0.667959  0.080826  0.416658  1
  Si  Si102  1  0.414148  0.331212  0.416927  1
  Si  Si103  1  0.081072  0.666479  0.250314  1
  Si  Si104  1  0.082615  0.413410  0.250119  1
  Si  Si105  1  0.331762  0.917001  0.250247  1
  Si  Si106  1  0.586304  0.665753  0.250361  1
  O  O107  1  0.668634  0.980504  0.624611  1
  O  O108  1  0.018943  0.685490  0.625002  1
  O  O109  1  0.313729  0.331816  0.625018  1
  O  O110  1  0.018905  0.331198  0.624743  1
  O  O111  1  0.312967  0.980334  0.624805  1
  O  O112  1  0.667344  0.685394  0.625065  1
  O  O113  1  0.882785  0.116630  0.661410  1
  O  O114  1  0.882186  0.763506  0.661458  1
  O  O115  1  0.235066  0.116824  0.661462  1
  O  O116  1  0.683304  0.019454  0.707299  1
  O  O117  1  0.979685  0.662208  0.707686  1
  O  O118  1  0.336745  0.315535  0.707745  1
  O  O119  1  0.979501  0.315687  0.707470  1
  O  O120  1  0.336769  0.019294  0.707484  1
  O  O121  1  0.683465  0.662272  0.707764  1
  O  O122  1  0.761680  0.879808  0.673411  1
  O  O123  1  0.118966  0.879889  0.673419  1
  O  O124  1  0.119439  0.237916  0.673436  1
  O  O125  1  0.555731  0.776970  0.583394  1
  O  O126  1  0.222301  0.776743  0.583525  1
  O  O127  1  0.222372  0.443666  0.583411  1
  O  O128  1  0.462076  0.923055  0.584597  1
  O  O129  1  0.075783  0.536886  0.584088  1
  O  O130  1  0.462225  0.537065  0.584008  1
  O  O131  1  0.664957  0.979499  0.541230  1
  O  O132  1  0.019593  0.684040  0.541599  1
  O  O133  1  0.315168  0.333554  0.541606  1
  O  O134  1  0.019827  0.333919  0.541309  1
  O  O135  1  0.315813  0.979299  0.541419  1
  O  O136  1  0.665937  0.684155  0.541673  1
  O  O137  1  0.881529  0.117550  0.506136  1
  O  O138  1  0.881894  0.762378  0.506199  1
  O  O139  1  0.237505  0.117502  0.506281  1
  Si  Si140  1  0.748112  0.999067  0.666641  1
  Si  Si141  1  0.999933  0.746805  0.666857  1
  Si  Si142  1  0.252289  0.251528  0.666872  1
  Si  Si143  1  0.000171  0.251398  0.666719  1
  Si  Si144  1  0.251873  0.999069  0.666759  1
  Si  Si145  1  0.747724  0.746735  0.666902  1
  Si  Si146  1  0.252377  0.251083  0.500257  1
  Si  Si147  1  0.586075  0.917357  0.583343  1
  Si  Si148  1  0.081920  0.666794  0.583536  1
  Si  Si149  1  0.332353  0.413289  0.583495  1
  Si  Si150  1  0.081977  0.413141  0.583335  1
  Si  Si151  1  0.332334  0.917120  0.583537  1
  Si  Si152  1  0.586038  0.666918  0.583519  1
  Si  Si153  1  0.000233  0.251086  0.500052  1
  Si  Si154  1  0.000257  0.746981  0.500224  1
  Si  Si155  1  0.748098  0.746915  0.500265  1
  Si  Si156  1  0.667539  0.080396  0.749900  1
  Si  Si157  1  0.252644  0.998982  0.500167  1
  Si  Si158  1  0.747886  0.999039  0.500018  1
  O  O159  1  0.443385  0.220509  0.750857  1
  O  O160  1  0.778037  0.220557  0.750732  1
  O  O161  1  0.778085  0.555214  0.750821  1
  O  O162  1  0.539152  0.077383  0.752217  1
  O  O163  1  0.921167  0.459454  0.752340  1
  O  O164  1  0.539256  0.459428  0.752364  1
  O  O165  1  0.329887  0.014997  0.790940  1
  O  O166  1  0.983207  0.312015  0.790934  1
  O  O167  1  0.686229  0.668177  0.791275  1
  O  O168  1  0.983042  0.668369  0.791173  1
  O  O169  1  0.686282  0.014939  0.790738  1
  O  O170  1  0.330252  0.312300  0.791253  1
  O  O171  1  0.222445  0.109604  0.833439  1
  O  O172  1  0.888160  0.109638  0.833328  1
  O  O173  1  0.888550  0.776059  0.833622  1
  O  O174  1  0.126228  0.251523  0.835008  1
  O  O175  1  0.746004  0.871682  0.835107  1
  O  O176  1  0.126642  0.871641  0.835130  1
  O  O177  1  0.333716  0.312963  0.875094  1
  O  O178  1  0.683737  0.018236  0.874472  1
  O  O179  1  0.980231  0.663681  0.874976  1
  O  O180  1  0.684836  0.664054  0.875112  1
  O  O181  1  0.979867  0.313485  0.874699  1
  O  O182  1  0.335000  0.017850  0.874721  1
  O  O183  1  0.443998  0.220102  0.916591  1
  O  O184  1  0.777117  0.220464  0.916438  1
  O  O185  1  0.777447  0.553539  0.916552  1
  O  O186  1  0.538065  0.075067  0.916983  1
  O  O187  1  0.922357  0.459509  0.916442  1
  O  O188  1  0.538552  0.459007  0.915975  1
  O  O189  1  0.331934  0.016560  0.958449  1
  O  O190  1  0.980504  0.311922  0.958339  1
  O  O191  1  0.684616  0.663474  0.958862  1
  O  O192  1  0.980498  0.664618  0.958698  1
  O  O193  1  0.685913  0.016713  0.958126  1
  O  O194  1  0.333864  0.312833  0.958827  1
  O  O195  1  0.763326  0.879296  0.994423  1
  O  O196  1  0.117213  0.879864  0.994708  1
  O  O197  1  0.117995  0.234149  0.994330  1
  Si  Si198  1  0.413651  0.330170  0.916931  1
  Si  Si199  1  0.917900  0.584180  0.916931  1
  Si  Si200  1  0.667409  0.583882  0.916916  1
  Si  Si201  1  0.667295  0.079933  0.916715  1
  Si  Si202  1  0.917650  0.330271  0.916750  1
  Si  Si203  1  0.252401  0.249945  0.833547  1
  Si  Si204  1  0.747739  0.999508  0.833272  1
  Si  Si205  1  0.998656  0.745713  0.833602  1
  Si  Si206  1  0.748122  0.745744  0.833650  1
  Si  Si207  1  0.998514  0.249981  0.833346  1
  Si  Si208  1  0.252733  0.999446  0.833418  1
  Si  Si209  1  0.413437  0.079613  0.916920  1
  Si  Si210  1  0.413799  0.331066  0.750229  1
  Si  Si211  1  0.667619  0.584880  0.750199  1
  Si  Si212  1  0.918175  0.331047  0.750037  1
  Si  Si213  1  0.918219  0.584915  0.750143  1
  Si  Si214  1  0.747646  0.997639  0.999874  1
  Si  Si215  1  0.413729  0.080338  0.750026  1
  Si  Si216  1  0.999685  0.249758  0.999938  1
