# generated using pymatgen
data_SiO2
_symmetry_space_group_name_H-M   'P 1'
_cell_length_a   28.25841819
_cell_length_b   19.89838588
_cell_length_c   19.47586299
_cell_angle_alpha   90.00000000
_cell_angle_beta   93.20000000
_cell_angle_gamma   90.00000000
_symmetry_Int_Tables_number   1
_chemical_formula_structural   SiO2
_chemical_formula_sum   'Si192 O384'
_cell_volume   10934.1420384
_cell_formula_units_Z   192
loop_
 _symmetry_equiv_pos_site_id
 _symmetry_equiv_pos_as_xyz
  1  'x, y, z'
loop_
 _atom_site_type_symbol
 _atom_site_label
 _atom_site_symmetry_multiplicity
 _atom_site_fract_x
 _atom_site_fract_y
 _atom_site_fract_z
 _atom_site_occupancy
  O  O1  1  0.044955  0.100020  0.908368  1
  O  O2  1  0.096629  0.201108  0.937693  1
  O  O3  1  0.131468  0.097299  0.881621  1
  O  O4  1  0.105660  0.094992  0.008737  1
  O  O5  1  0.131779  0.193034  0.643766  1
  O  O6  1  0.126795  0.249673  0.760143  1
  O  O7  1  0.126913  0.122945  0.754310  1
  O  O8  1  0.053286  0.189429  0.714731  1
  O  O9  1  0.045867  0.088786  0.102510  1
  O  O10  1  0.130005  0.123802  0.135385  1
  O  O11  1  0.206445  0.094316  0.809882  1
  O  O12  1  0.293645  0.405652  0.190177  1
  O  O13  1  0.129929  0.302526  0.879466  1
  O  O14  1  0.104790  0.306134  0.010736  1
  O  O15  1  0.044688  0.300722  0.907502  1
  O  O16  1  0.200668  0.199694  0.182503  1
  O  O17  1  0.299423  0.300280  0.817552  1
  O  O18  1  0.295953  0.202370  0.192507  1
  O  O19  1  0.204138  0.297602  0.807547  1
  O  O20  1  0.247253  0.198528  0.296824  1
  O  O21  1  0.252839  0.301436  0.703231  1
  O  O22  1  0.246298  0.302894  0.225498  1
  O  O23  1  0.253793  0.197076  0.774564  1
  O  O24  1  0.046238  0.302503  0.108936  1
  O  O25  1  0.005343  0.248796  0.802391  1
  Si  Si26  1  0.252460  0.275408  0.778842  1
  O  O27  1  0.125824  0.250162  0.126733  1
  O  O28  1  0.123505  0.195582  0.244334  1
  O  O29  1  0.119276  0.376312  0.123899  1
  O  O30  1  0.181881  0.499987  0.589365  1
  O  O31  1  0.130136  0.410284  0.641051  1
  O  O32  1  0.052950  0.411157  0.714286  1
  O  O33  1  0.133682  0.375243  0.768386  1
  O  O34  1  0.123888  0.407292  0.249746  1
  O  O35  1  0.138187  0.499989  0.164699  1
  O  O36  1  0.199325  0.405476  0.185543  1
  O  O37  1  0.300766  0.094495  0.814517  1
  O  O38  1  0.246982  0.406971  0.297827  1
  O  O39  1  0.253109  0.093001  0.702233  1
  O  O40  1  0.168987  0.299692  0.439145  1
  O  O41  1  0.331104  0.200275  0.560913  1
  O  O42  1  0.211093  0.406598  0.413556  1
  O  O43  1  0.289000  0.093368  0.586504  1
  O  O44  1  0.153544  0.403152  0.511153  1
  O  O45  1  0.122451  0.392672  0.379761  1
  O  O46  1  0.041980  0.403066  0.298663  1
  O  O47  1  0.095038  0.299895  0.298436  1
  O  O48  1  0.201074  0.123961  0.599256  1
  O  O49  1  0.299019  0.376008  0.400800  1
  O  O50  1  0.268094  0.499983  0.382723  1
  Si  Si51  1  0.004540  0.188612  0.750766  1
  O  O52  1  0.042733  0.197418  0.296097  1
  O  O53  1  0.212786  0.376376  0.609514  1
  O  O54  1  0.287307  0.123592  0.390545  1
  O  O55  1  0.287311  0.304679  0.585329  1
  O  O56  1  0.212780  0.195289  0.414725  1
  O  O57  1  0.206728  0.249348  0.604665  1
  O  O58  1  0.293362  0.250621  0.395388  1
  O  O59  1  0.154271  0.197878  0.511659  1
  O  O60  1  0.123709  0.206504  0.377644  1
  Si  Si61  1  0.109277  0.188287  0.715773  1
  Si  Si62  1  0.001416  0.308045  0.854241  1
  Si  Si63  1  0.145454  0.190890  0.172341  1
  Si  Si64  1  0.095726  0.123015  0.934363  1
  Si  Si65  1  0.099140  0.310078  0.090404  1
  Si  Si66  1  0.247631  0.224562  0.221215  1
  Si  Si67  1  0.108412  0.422871  0.713181  1
  Si  Si68  1  0.145033  0.422964  0.178761  1
  Si  Si69  1  0.099180  0.076953  0.085986  1
  Si  Si70  1  0.246975  0.381162  0.222368  1
  Si  Si71  1  0.253116  0.118808  0.777692  1
  Si  Si72  1  0.152048  0.077465  0.811183  1
  Si  Si73  1  0.163010  0.377463  0.436714  1
  Si  Si74  1  0.171261  0.190135  0.590006  1
  Si  Si75  1  0.094764  0.377548  0.308796  1
  Si  Si76  1  0.243036  0.077160  0.624535  1
  Si  Si77  1  0.257057  0.422809  0.375526  1
  Si  Si78  1  0.095564  0.279396  0.935441  1
  Si  Si79  1  0.169403  0.422711  0.587535  1
  Si  Si80  1  0.240491  0.309106  0.624651  1
  Si  Si81  1  0.259600  0.190861  0.375404  1
  Si  Si82  1  0.148952  0.307764  0.805340  1
  Si  Si83  1  0.163279  0.221742  0.436018  1
  Si  Si84  1  0.095925  0.221897  0.306748  1
  Si  Si85  1  0.330690  0.077258  0.412524  1
  Si  Si86  1  0.328831  0.309832  0.410048  1
  O  O87  1  0.003607  0.375726  0.812903  1
  O  O88  1  0.000945  0.122692  0.794487  1
  Si  Si89  1  0.001586  0.077408  0.860412  1
  Si  Si90  1  0.003767  0.422745  0.747820  1
  O  O91  1  0.000128  0.499990  0.765732  1
  O  O92  1  0.116561  0.499989  0.729932  1
  O  O93  1  0.044951  0.899961  0.908372  1
  O  O94  1  0.096628  0.798874  0.937695  1
  O  O95  1  0.131465  0.902681  0.881621  1
  O  O96  1  0.105660  0.904990  0.008738  1
  O  O97  1  0.131775  0.806944  0.643766  1
  O  O98  1  0.126791  0.750307  0.760143  1
  O  O99  1  0.126909  0.877033  0.754310  1
  O  O100  1  0.053281  0.810550  0.714731  1
  O  O101  1  0.045872  0.911194  0.102517  1
  O  O102  1  0.109184  0.999991  0.097351  1
  O  O103  1  0.130010  0.876180  0.135385  1
  O  O104  1  0.293649  0.594316  0.190181  1
  O  O105  1  0.206442  0.905657  0.809883  1
  O  O106  1  0.144433  0.999989  0.797946  1
  O  O107  1  0.129923  0.697453  0.879466  1
  O  O108  1  0.104789  0.693848  0.010738  1
  O  O109  1  0.044683  0.699261  0.907507  1
  O  O110  1  0.299418  0.699687  0.817560  1
  O  O111  1  0.200674  0.800285  0.182506  1
  O  O112  1  0.204133  0.702377  0.807551  1
  O  O113  1  0.295959  0.797591  0.192512  1
  O  O114  1  0.252836  0.698536  0.703236  1
  O  O115  1  0.247258  0.801438  0.296829  1
  O  O116  1  0.253793  0.802896  0.774570  1
  O  O117  1  0.246298  0.697075  0.225499  1
  O  O118  1  0.046243  0.697482  0.108943  1
  O  O119  1  0.005340  0.751185  0.802394  1
  Si  Si120  1  0.247635  0.775407  0.221218  1
  O  O121  1  0.125830  0.749820  0.126733  1
  O  O122  1  0.123510  0.804400  0.244334  1
  O  O123  1  0.119280  0.623669  0.123898  1
  Si  Si124  1  0.252457  0.724564  0.778848  1
  Si  Si125  1  0.003766  0.577236  0.747822  1
  O  O126  1  0.130134  0.589691  0.641049  1
  O  O127  1  0.052949  0.588822  0.714286  1
  O  O128  1  0.133679  0.624737  0.768385  1
  Si  Si129  1  0.001583  0.922573  0.860414  1
  O  O130  1  0.123890  0.592688  0.249744  1
  O  O131  1  0.300763  0.905477  0.814522  1
  O  O132  1  0.199328  0.594495  0.185543  1
  O  O133  1  0.253108  0.906971  0.702237  1
  O  O134  1  0.246984  0.592999  0.297829  1
  O  O135  1  0.331105  0.799692  0.560916  1
  O  O136  1  0.168989  0.700280  0.439147  1
  O  O137  1  0.288999  0.906600  0.586509  1
  O  O138  1  0.211094  0.593371  0.413556  1
  O  O139  1  0.153543  0.596820  0.511152  1
  O  O140  1  0.122452  0.607305  0.379759  1
  O  O141  1  0.041983  0.596917  0.298661  1
  O  O142  1  0.095042  0.700087  0.298435  1
  O  O143  1  0.299020  0.623957  0.400805  1
  O  O144  1  0.201073  0.876012  0.599259  1
  O  O145  1  0.231998  0.999985  0.617342  1
  O  O146  1  0.042739  0.802565  0.296101  1
  O  O147  1  0.287312  0.876372  0.390550  1
  O  O148  1  0.212783  0.623597  0.609517  1
  O  O149  1  0.212786  0.804678  0.414731  1
  O  O150  1  0.287307  0.695295  0.585333  1
  O  O151  1  0.293368  0.749343  0.395392  1
  O  O152  1  0.206723  0.750625  0.604671  1
  O  O153  1  0.154272  0.802095  0.511659  1
  O  O154  1  0.123716  0.793473  0.377643  1
  Si  Si155  1  0.004536  0.811368  0.750769  1
  O  O156  1  0.318213  0.999983  0.410696  1
  Si  Si157  1  0.109273  0.811692  0.715773  1
  Si  Si158  1  0.001412  0.691935  0.854244  1
  Si  Si159  1  0.145460  0.809092  0.172341  1
  Si  Si160  1  0.095723  0.876967  0.934365  1
  Si  Si161  1  0.099144  0.689905  0.090407  1
  Si  Si162  1  0.171258  0.809839  0.590008  1
  Si  Si163  1  0.108410  0.577107  0.713180  1
  Si  Si164  1  0.145035  0.577014  0.178759  1
  Si  Si165  1  0.099184  0.923029  0.085988  1
  Si  Si166  1  0.253113  0.881164  0.777696  1
  Si  Si167  1  0.246978  0.618807  0.222371  1
  Si  Si168  1  0.152046  0.922512  0.811184  1
  Si  Si169  1  0.095560  0.720585  0.935443  1
  Si  Si170  1  0.163011  0.622509  0.436714  1
  Si  Si171  1  0.094767  0.622433  0.308794  1
  Si  Si172  1  0.257058  0.577158  0.375528  1
  Si  Si173  1  0.243035  0.922811  0.624538  1
  Si  Si174  1  0.169401  0.577262  0.587534  1
  Si  Si175  1  0.095931  0.778084  0.306748  1
  Si  Si176  1  0.259606  0.809104  0.375409  1
  Si  Si177  1  0.240487  0.690867  0.624657  1
  Si  Si178  1  0.148947  0.692215  0.805340  1
  Si  Si179  1  0.163283  0.778230  0.436020  1
  Si  Si180  1  0.328834  0.690131  0.410055  1
  Si  Si181  1  0.330693  0.922709  0.412530  1
  O  O182  1  0.003607  0.624254  0.812906  1
  O  O183  1  0.000944  0.877289  0.794488  1
  O  O184  1  0.006111  0.999990  0.845049  1
  O  O185  1  0.455135  0.399948  0.091683  1
  O  O186  1  0.544955  0.399948  0.908363  1
  O  O187  1  0.403451  0.298865  0.062367  1
  O  O188  1  0.596638  0.298866  0.937682  1
  O  O189  1  0.368622  0.402681  0.118435  1
  O  O190  1  0.631467  0.402680  0.881612  1
  O  O191  1  0.394429  0.404978  0.991317  1
  O  O192  1  0.605660  0.404981  0.008729  1
  O  O193  1  0.368312  0.306931  0.356288  1
  O  O194  1  0.631779  0.306935  0.643759  1
  O  O195  1  0.373297  0.250295  0.239909  1
  O  O196  1  0.626794  0.250298  0.760137  1
  O  O197  1  0.373178  0.377022  0.245745  1
  O  O198  1  0.626913  0.377025  0.754302  1
  O  O199  1  0.446806  0.310540  0.285321  1
  O  O200  1  0.553285  0.310543  0.714725  1
  O  O201  1  0.454224  0.411185  0.897544  1
  O  O202  1  0.545865  0.411185  0.102502  1
  O  O203  1  0.370088  0.376171  0.864666  1
  O  O204  1  0.630002  0.376171  0.135379  1
  O  O205  1  0.355656  0.499981  0.202120  1
  O  O206  1  0.370162  0.197437  0.120589  1
  O  O207  1  0.629929  0.197441  0.879457  1
  O  O208  1  0.395299  0.193842  0.989317  1
  O  O209  1  0.604792  0.193842  0.010729  1
  O  O210  1  0.455403  0.199257  0.092548  1
  O  O211  1  0.544689  0.199256  0.907498  1
  O  O212  1  0.453854  0.197474  0.891119  1
  O  O213  1  0.546238  0.197473  0.108928  1
  O  O214  1  0.505343  0.251178  0.802387  1
  O  O215  1  0.494749  0.251176  0.197660  1
  O  O216  1  0.503610  0.124247  0.812901  1
  O  O217  1  0.496481  0.124245  0.187143  1
  O  O218  1  0.374267  0.249812  0.873320  1
  O  O219  1  0.625826  0.249811  0.126727  1
  O  O220  1  0.376585  0.304390  0.755718  1
  O  O221  1  0.623505  0.304391  0.244328  1
  O  O222  1  0.380817  0.123662  0.876158  1
  O  O223  1  0.619276  0.123661  0.123889  1
  O  O224  1  0.500944  0.377282  0.794482  1
  O  O225  1  0.499145  0.377280  0.205563  1
  O  O226  1  0.369957  0.089686  0.359008  1
  O  O227  1  0.630134  0.089687  0.641040  1
  O  O228  1  0.447140  0.088815  0.285765  1
  O  O229  1  0.552950  0.088815  0.714281  1
  O  O230  1  0.366406  0.124725  0.231673  1
  O  O231  1  0.633683  0.124728  0.768375  1
  O  O232  1  0.376203  0.092680  0.750313  1
  O  O233  1  0.623887  0.092680  0.249734  1
  O  O234  1  0.346549  0.096817  0.488906  1
  O  O235  1  0.653541  0.096818  0.511141  1
  O  O236  1  0.377642  0.107298  0.620298  1
  O  O237  1  0.622447  0.107299  0.379749  1
  O  O238  1  0.458111  0.096904  0.701398  1
  O  O239  1  0.541979  0.096906  0.298647  1
  O  O240  1  0.405055  0.200077  0.701621  1
  O  O241  1  0.595036  0.200078  0.298425  1
  O  O242  1  0.457357  0.302557  0.703955  1
  O  O243  1  0.542734  0.302557  0.296091  1
  O  O244  1  0.345821  0.302087  0.488395  1
  O  O245  1  0.654270  0.302091  0.511653  1
  O  O246  1  0.376382  0.293464  0.622410  1
  O  O247  1  0.623708  0.293467  0.377636  1
  Si  Si248  1  0.390814  0.311680  0.284281  1
  Si  Si249  1  0.609277  0.311683  0.715766  1
  Si  Si250  1  0.501417  0.191929  0.854238  1
  Si  Si251  1  0.498675  0.191928  0.145807  1
  Si  Si252  1  0.354637  0.309083  0.827712  1
  Si  Si253  1  0.645454  0.309084  0.172334  1
  Si  Si254  1  0.404361  0.376958  0.065692  1
  Si  Si255  1  0.595728  0.376959  0.934355  1
  Si  Si256  1  0.400952  0.189898  0.909650  1
  Si  Si257  1  0.599141  0.189897  0.090397  1
  Si  Si258  1  0.501585  0.422564  0.860409  1
  Si  Si259  1  0.498504  0.422563  0.139637  1
  Si  Si260  1  0.391679  0.077099  0.286877  1
  Si  Si261  1  0.608411  0.077100  0.713171  1
  Si  Si262  1  0.355059  0.077009  0.821299  1
  Si  Si263  1  0.645033  0.077008  0.178750  1
  Si  Si264  1  0.400911  0.423019  0.914068  1
  Si  Si265  1  0.599178  0.423019  0.085978  1
  Si  Si266  1  0.348042  0.422505  0.188875  1
  Si  Si267  1  0.652050  0.422506  0.811174  1
  Si  Si268  1  0.405328  0.122423  0.691264  1
  Si  Si269  1  0.594762  0.122424  0.308783  1
  Si  Si270  1  0.503768  0.077226  0.747819  1
  Si  Si271  1  0.496322  0.077226  0.252226  1
  Si  Si272  1  0.504540  0.311361  0.750762  1
  Si  Si273  1  0.495551  0.311359  0.249284  1
  Si  Si274  1  0.351138  0.192203  0.194715  1
  Si  Si275  1  0.648952  0.192206  0.805331  1
  Si  Si276  1  0.336812  0.278225  0.564037  1
  Si  Si277  1  0.663277  0.278227  0.436011  1
  Si  Si278  1  0.404166  0.278074  0.693306  1
  Si  Si279  1  0.595925  0.278075  0.306740  1
  Si  Si280  1  0.595567  0.220577  0.935433  1
  Si  Si281  1  0.404524  0.220576  0.064614  1
  Si  Si282  1  0.663006  0.122506  0.436703  1
  Si  Si283  1  0.337083  0.122504  0.563345  1
  O  O284  1  0.609181  0.499981  0.097344  1
  O  O285  1  0.390909  0.499981  0.902706  1
  O  O286  1  0.644437  0.499982  0.797931  1
  O  O287  1  0.493978  0.499981  0.155000  1
  O  O288  1  0.506112  0.499982  0.845049  1
  O  O289  1  0.544951  0.600016  0.908367  1
  O  O290  1  0.455139  0.600016  0.091688  1
  O  O291  1  0.596639  0.701096  0.937682  1
  O  O292  1  0.403452  0.701095  0.062368  1
  O  O293  1  0.631464  0.597280  0.881613  1
  O  O294  1  0.368626  0.597282  0.118442  1
  O  O295  1  0.605659  0.594982  0.008731  1
  O  O296  1  0.394432  0.594978  0.991324  1
  O  O297  1  0.631775  0.693030  0.643760  1
  O  O298  1  0.368318  0.693027  0.356297  1
  O  O299  1  0.626790  0.749666  0.760138  1
  O  O300  1  0.373302  0.749663  0.239918  1
  O  O301  1  0.626909  0.622939  0.754302  1
  O  O302  1  0.373183  0.622936  0.245753  1
  O  O303  1  0.553281  0.689421  0.714726  1
  O  O304  1  0.446811  0.689418  0.285330  1
  O  O305  1  0.545870  0.588779  0.102510  1
  O  O306  1  0.454221  0.588779  0.897544  1
  Si  Si307  1  0.337083  0.877463  0.563351  1
  Si  Si308  1  0.663008  0.877465  0.436702  1
  O  O309  1  0.630006  0.623791  0.135380  1
  O  O310  1  0.370084  0.623794  0.864677  1
  Si  Si311  1  0.595564  0.779384  0.935436  1
  O  O312  1  0.629923  0.802526  0.879457  1
  O  O313  1  0.370169  0.802522  0.120598  1
  O  O314  1  0.604791  0.806119  0.010731  1
  O  O315  1  0.395301  0.806122  0.989324  1
  O  O316  1  0.544684  0.800701  0.907504  1
  O  O317  1  0.455408  0.800698  0.092551  1
  O  O318  1  0.546243  0.802486  0.108936  1
  O  O319  1  0.453850  0.802491  0.891120  1
  O  O320  1  0.494752  0.748783  0.197666  1
  O  O321  1  0.505339  0.748786  0.802389  1
  O  O322  1  0.496482  0.875714  0.187146  1
  O  O323  1  0.503610  0.875716  0.812906  1
  O  O324  1  0.625831  0.750150  0.126727  1
  O  O325  1  0.374262  0.750153  0.873330  1
  O  O326  1  0.623510  0.695571  0.244328  1
  O  O327  1  0.376581  0.695573  0.755729  1
  O  O328  1  0.619280  0.876301  0.123888  1
  O  O329  1  0.380812  0.876304  0.876166  1
  Si  Si330  1  0.404528  0.779383  0.064619  1
  Si  Si331  1  0.404161  0.721888  0.693315  1
  O  O332  1  0.499148  0.622679  0.205570  1
  O  O333  1  0.500943  0.622682  0.794485  1
  O  O334  1  0.630131  0.910281  0.641038  1
  O  O335  1  0.369961  0.910280  0.359015  1
  O  O336  1  0.552949  0.911148  0.714282  1
  O  O337  1  0.447144  0.911148  0.285770  1
  O  O338  1  0.633681  0.875235  0.768373  1
  O  O339  1  0.366411  0.875232  0.231682  1
  O  O340  1  0.616561  0.999982  0.729922  1
  O  O341  1  0.383531  0.999980  0.270128  1
  O  O342  1  0.623890  0.907283  0.249732  1
  O  O343  1  0.376201  0.907283  0.750321  1
  O  O344  1  0.638187  0.999983  0.164687  1
  O  O345  1  0.361905  0.999984  0.835363  1
  O  O346  1  0.653541  0.903154  0.511140  1
  O  O347  1  0.346551  0.903153  0.488914  1
  O  O348  1  0.622450  0.892668  0.379747  1
  O  O349  1  0.377641  0.892667  0.620306  1
  O  O350  1  0.541982  0.903057  0.298647  1
  O  O351  1  0.458110  0.903056  0.701405  1
  O  O352  1  0.595040  0.799885  0.298425  1
  O  O353  1  0.405051  0.799885  0.701629  1
  O  O354  1  0.499960  0.999981  0.234314  1
  O  O355  1  0.500131  0.999981  0.765734  1
  O  O356  1  0.542740  0.697404  0.296095  1
  O  O357  1  0.457352  0.697405  0.703961  1
  O  O358  1  0.654271  0.697880  0.511654  1
  O  O359  1  0.345820  0.697876  0.488404  1
  O  O360  1  0.623715  0.706500  0.377637  1
  O  O361  1  0.376376  0.706499  0.622419  1
  Si  Si362  1  0.609273  0.688281  0.715766  1
  Si  Si363  1  0.390819  0.688278  0.284290  1
  Si  Si364  1  0.498679  0.808030  0.145813  1
  Si  Si365  1  0.501414  0.808034  0.854242  1
  Si  Si366  1  0.645460  0.690878  0.172335  1
  Si  Si367  1  0.354632  0.690881  0.827722  1
  Si  Si368  1  0.595725  0.623003  0.934357  1
  Si  Si369  1  0.404365  0.623002  0.065697  1
  Si  Si370  1  0.599144  0.810064  0.090400  1
  Si  Si371  1  0.400948  0.810067  0.909656  1
  Si  Si372  1  0.498508  0.577398  0.139642  1
  Si  Si373  1  0.501583  0.577399  0.860412  1
  Si  Si374  1  0.608409  0.922864  0.713170  1
  Si  Si375  1  0.391683  0.922863  0.286883  1
  Si  Si376  1  0.645035  0.922958  0.178748  1
  Si  Si377  1  0.355057  0.922958  0.821305  1
  Si  Si378  1  0.599181  0.576943  0.085981  1
  Si  Si379  1  0.400909  0.576942  0.914073  1
  Si  Si380  1  0.652047  0.577459  0.811174  1
  Si  Si381  1  0.348044  0.577457  0.188881  1
  Si  Si382  1  0.594766  0.877539  0.308781  1
  Si  Si383  1  0.405326  0.877539  0.691272  1
  Si  Si384  1  0.496324  0.922735  0.252228  1
  Si  Si385  1  0.503767  0.922735  0.747823  1
  Si  Si386  1  0.495556  0.688600  0.249291  1
  Si  Si387  1  0.504536  0.688602  0.750764  1
  Si  Si388  1  0.648948  0.807758  0.805332  1
  Si  Si389  1  0.351145  0.807755  0.194724  1
  Si  Si390  1  0.663281  0.721744  0.436014  1
  Si  Si391  1  0.336809  0.721742  0.564043  1
  Si  Si392  1  0.595931  0.721888  0.306741  1
  O  O393  1  0.955137  0.100018  0.091688  1
  O  O394  1  0.903465  0.201108  0.062365  1
  O  O395  1  0.868624  0.097300  0.118435  1
  O  O396  1  0.894432  0.094995  0.991320  1
  O  O397  1  0.868311  0.193037  0.356288  1
  O  O398  1  0.873296  0.249676  0.239912  1
  O  O399  1  0.873178  0.122949  0.245745  1
  O  O400  1  0.946805  0.189432  0.285324  1
  O  O401  1  0.954225  0.088786  0.897547  1
  O  O402  1  0.870087  0.123800  0.864670  1
  O  O403  1  0.793646  0.094321  0.190171  1
  O  O404  1  0.706446  0.405650  0.809875  1
  O  O405  1  0.870162  0.302527  0.120589  1
  O  O406  1  0.895300  0.306131  0.989319  1
  O  O407  1  0.955403  0.300728  0.092555  1
  O  O408  1  0.799423  0.199689  0.817547  1
  O  O409  1  0.700668  0.300284  0.182498  1
  O  O410  1  0.704138  0.202371  0.807541  1
  O  O411  1  0.795954  0.297604  0.192506  1
  O  O412  1  0.752838  0.198529  0.703225  1
  O  O413  1  0.747252  0.301441  0.296821  1
  O  O414  1  0.753796  0.302893  0.774555  1
  O  O415  1  0.746296  0.197080  0.225487  1
  O  O416  1  0.953852  0.302498  0.891120  1
  O  O417  1  0.994748  0.248798  0.197664  1
  Si  Si418  1  0.747631  0.275412  0.221210  1
  O  O419  1  0.874265  0.250160  0.873322  1
  O  O420  1  0.876587  0.195580  0.755720  1
  O  O421  1  0.880815  0.376310  0.876157  1
  Si  Si422  1  0.752460  0.224560  0.778835  1
  O  O423  1  0.869954  0.410286  0.359005  1
  O  O424  1  0.947140  0.411158  0.285773  1
  O  O425  1  0.866409  0.375246  0.231670  1
  O  O426  1  0.876204  0.407293  0.750311  1
  Si  Si427  1  0.669401  0.077260  0.587523  1
  O  O428  1  0.800766  0.405475  0.814512  1
  O  O429  1  0.699325  0.094496  0.185533  1
  O  O430  1  0.753109  0.406970  0.702226  1
  O  O431  1  0.746982  0.093004  0.297818  1
  O  O432  1  0.831105  0.299694  0.560911  1
  O  O433  1  0.668984  0.200277  0.439136  1
  O  O434  1  0.789000  0.406602  0.586500  1
  O  O435  1  0.711090  0.093371  0.413544  1
  O  O436  1  0.846548  0.403153  0.488903  1
  O  O437  1  0.877642  0.392673  0.620296  1
  O  O438  1  0.958111  0.403065  0.701397  1
  O  O439  1  0.905053  0.299894  0.701621  1
  O  O440  1  0.799016  0.123964  0.400797  1
  O  O441  1  0.701074  0.376011  0.599249  1
  Si  Si442  1  0.671261  0.309836  0.590000  1
  O  O443  1  0.818210  0.499989  0.410695  1
  Si  Si444  1  0.995551  0.188615  0.249289  1
  O  O445  1  0.957358  0.197417  0.703958  1
  O  O446  1  0.787305  0.376379  0.390542  1
  O  O447  1  0.712784  0.123595  0.609502  1
  O  O448  1  0.712779  0.304680  0.414721  1
  O  O449  1  0.787312  0.195291  0.585326  1
  O  O450  1  0.793363  0.249351  0.395388  1
  O  O451  1  0.706729  0.250624  0.604659  1
  O  O452  1  0.845820  0.197881  0.488395  1
  O  O453  1  0.876382  0.206505  0.622411  1
  Si  Si454  1  0.996324  0.422746  0.252241  1
  Si  Si455  1  0.890813  0.188290  0.284282  1
  Si  Si456  1  0.998675  0.308049  0.145816  1
  Si  Si457  1  0.854637  0.190888  0.827713  1
  Si  Si458  1  0.904367  0.123016  0.065694  1
  Si  Si459  1  0.900950  0.310074  0.909651  1
  Si  Si460  1  0.828829  0.190138  0.410048  1
  Si  Si461  1  0.891679  0.422873  0.286876  1
  Si  Si462  1  0.855058  0.422963  0.821296  1
  Si  Si463  1  0.900912  0.076953  0.914071  1
  Si  Si464  1  0.753116  0.381161  0.777685  1
  Si  Si465  1  0.746975  0.118812  0.222359  1
  Si  Si466  1  0.848042  0.077467  0.188872  1
  Si  Si467  1  0.837083  0.377465  0.563342  1
  Si  Si468  1  0.904528  0.279397  0.064615  1
  Si  Si469  1  0.905328  0.377547  0.691262  1
  Si  Si470  1  0.757055  0.077163  0.375517  1
  Si  Si471  1  0.743035  0.422811  0.624528  1
  Si  Si472  1  0.830687  0.422713  0.412522  1
  Si  Si473  1  0.904166  0.221896  0.693307  1
  Si  Si474  1  0.759600  0.309109  0.375401  1
  Si  Si475  1  0.740490  0.190863  0.624645  1
  Si  Si476  1  0.851139  0.307767  0.194715  1
  Si  Si477  1  0.836813  0.221744  0.564036  1
  O  O478  1  0.996484  0.375729  0.187157  1
  Si  Si479  1  0.998506  0.077408  0.139645  1
  O  O480  1  0.731998  0.499986  0.617334  1
  O  O481  1  0.861904  0.499988  0.835362  1
  O  O482  1  0.999146  0.122694  0.205569  1
  O  O483  1  0.883531  0.499992  0.270127  1
  O  O484  1  0.999963  0.499992  0.234330  1
  O  O485  1  0.955142  0.899959  0.091692  1
  O  O486  1  0.903464  0.798875  0.062367  1
  O  O487  1  0.868629  0.902684  0.118441  1
  O  O488  1  0.894434  0.904992  0.991325  1
  O  O489  1  0.868316  0.806948  0.356296  1
  O  O490  1  0.873301  0.750311  0.239919  1
  O  O491  1  0.873182  0.877037  0.245752  1
  O  O492  1  0.946810  0.810553  0.285332  1
  O  O493  1  0.954221  0.911193  0.897544  1
  Si  Si494  1  0.671258  0.690134  0.590002  1
  O  O495  1  0.870084  0.876179  0.864678  1
  O  O496  1  0.706442  0.594320  0.809876  1
  O  O497  1  0.793650  0.905655  0.190175  1
  Si  Si498  1  0.669399  0.922710  0.587523  1
  O  O499  1  0.870168  0.697455  0.120597  1
  O  O500  1  0.895301  0.693848  0.989325  1
  O  O501  1  0.955408  0.699263  0.092557  1
  O  O502  1  0.700674  0.699682  0.182500  1
  O  O503  1  0.799418  0.800288  0.817555  1
  O  O504  1  0.795959  0.702378  0.192511  1
  O  O505  1  0.704133  0.797594  0.807545  1
  O  O506  1  0.747257  0.698537  0.296825  1
  O  O507  1  0.752834  0.801442  0.703230  1
  O  O508  1  0.746297  0.802896  0.225488  1
  O  O509  1  0.753795  0.697078  0.774559  1
  O  O510  1  0.953848  0.697480  0.891120  1
  O  O511  1  0.994751  0.751187  0.197670  1
  Si  Si512  1  0.752458  0.775411  0.778840  1
  O  O513  1  0.874260  0.749819  0.873330  1
  O  O514  1  0.876582  0.804400  0.755729  1
  O  O515  1  0.880810  0.623668  0.876165  1
  Si  Si516  1  0.747634  0.724563  0.221213  1
  Si  Si517  1  0.828833  0.809843  0.410053  1
  O  O518  1  0.869958  0.589692  0.359013  1
  O  O519  1  0.947143  0.588824  0.285777  1
  O  O520  1  0.866413  0.624740  0.231679  1
  O  O521  1  0.999150  0.877290  0.205575  1
  O  O522  1  0.876202  0.592688  0.750319  1
  O  O523  1  0.699329  0.905478  0.185533  1
  O  O524  1  0.800763  0.594496  0.814516  1
  O  O525  1  0.746984  0.906970  0.297820  1
  O  O526  1  0.753107  0.593001  0.702230  1
  O  O527  1  0.668987  0.799694  0.439138  1
  O  O528  1  0.831105  0.700282  0.560913  1
  O  O529  1  0.711091  0.906603  0.413545  1
  O  O530  1  0.788999  0.593375  0.586505  1
  O  O531  1  0.846549  0.596820  0.488910  1
  O  O532  1  0.877640  0.607306  0.620304  1
  O  O533  1  0.958109  0.596917  0.701402  1
  O  O534  1  0.905050  0.700087  0.701628  1
  O  O535  1  0.701072  0.623960  0.599252  1
  O  O536  1  0.799018  0.876016  0.400801  1
  O  O537  1  0.957353  0.802565  0.703963  1
  O  O538  1  0.712781  0.876375  0.609505  1
  O  O539  1  0.787310  0.623600  0.390546  1
  O  O540  1  0.787307  0.804679  0.585330  1
  O  O541  1  0.712785  0.695296  0.414726  1
  O  O542  1  0.706725  0.749346  0.604666  1
  O  O543  1  0.793368  0.750629  0.395390  1
  O  O544  1  0.845820  0.802099  0.488402  1
  O  O545  1  0.876377  0.793474  0.622419  1
  O  O546  1  0.681879  0.999985  0.589354  1
  Si  Si547  1  0.890819  0.811696  0.284290  1
  Si  Si548  1  0.998679  0.691937  0.145820  1
  Si  Si549  1  0.854632  0.809092  0.827722  1
  Si  Si550  1  0.904370  0.876968  0.065698  1
  Si  Si551  1  0.900946  0.689904  0.909656  1
  Si  Si552  1  0.904531  0.720586  0.064620  1
  Si  Si553  1  0.891682  0.577109  0.286882  1
  Si  Si554  1  0.855056  0.577014  0.821303  1
  Si  Si555  1  0.900910  0.923030  0.914074  1
  Si  Si556  1  0.746978  0.881163  0.222361  1
  Si  Si557  1  0.753113  0.618810  0.777688  1
  Si  Si558  1  0.848045  0.922515  0.188877  1
  Si  Si559  1  0.830690  0.577263  0.412528  1
  Si  Si560  1  0.837082  0.622511  0.563348  1
  Si  Si561  1  0.905325  0.622434  0.691269  1
  Si  Si562  1  0.743034  0.577161  0.624531  1
  Si  Si563  1  0.757056  0.922814  0.375518  1
  Si  Si564  1  0.904161  0.778085  0.693315  1
  Si  Si565  1  0.836811  0.778232  0.564041  1
  Si  Si566  1  0.740487  0.809107  0.624650  1
  Si  Si567  1  0.759605  0.690870  0.375404  1
  Si  Si568  1  0.851145  0.692218  0.194723  1
  O  O569  1  0.996485  0.624256  0.187158  1
  Si  Si570  1  0.995556  0.811370  0.249296  1
  Si  Si571  1  0.998510  0.922573  0.139649  1
  Si  Si572  1  0.996326  0.577237  0.252241  1
  O  O573  1  0.768092  0.999989  0.382711  1
  O  O574  1  0.890909  0.999991  0.902709  1
  O  O575  1  0.855657  0.999992  0.202113  1
  O  O576  1  0.993982  0.999991  0.155011  1
