# generated using pymatgen
data_SiO2
_symmetry_space_group_name_H-M   'P 1'
_cell_length_a   13.80576989
_cell_length_b   17.56347353
_cell_length_c   5.06832013
_cell_angle_alpha   90.00000000
_cell_angle_beta   90.00000000
_cell_angle_gamma   90.00000000
_symmetry_Int_Tables_number   1
_chemical_formula_structural   SiO2
_chemical_formula_sum   'Si24 O48'
_cell_volume   1228.95245032
_cell_formula_units_Z   24
loop_
 _symmetry_equiv_pos_site_id
 _symmetry_equiv_pos_as_xyz
  1  'x, y, z'
loop_
 _atom_site_type_symbol
 _atom_site_label
 _atom_site_symmetry_multiplicity
 _atom_site_fract_x
 _atom_site_fract_y
 _atom_site_fract_z
 _atom_site_occupancy
  O  O1  1  0.280433  0.999685  0.001337  1
  O  O2  1  0.779326  0.499961  0.000107  1
  O  O3  1  0.719657  0.000197  0.998883  1
  O  O4  1  0.220764  0.499898  0.000240  1
  O  O5  1  0.279327  0.000191  0.501347  1
  O  O6  1  0.780433  0.499877  0.500099  1
  O  O7  1  0.720762  0.999644  0.498885  1
  O  O8  1  0.219657  0.499981  0.500253  1
  O  O9  1  0.406258  0.074863  0.252537  1
  O  O10  1  0.906220  0.574870  0.248048  1
  O  O11  1  0.593876  0.074874  0.252100  1
  O  O12  1  0.093837  0.574867  0.247973  1
  O  O13  1  0.406214  0.924984  0.748213  1
  O  O14  1  0.906253  0.424991  0.752374  1
  O  O15  1  0.593832  0.924995  0.747779  1
  O  O16  1  0.093870  0.424989  0.752301  1
  O  O17  1  0.236182  0.125143  0.247407  1
  O  O18  1  0.736122  0.625111  0.252900  1
  O  O19  1  0.763980  0.125104  0.247891  1
  O  O20  1  0.263918  0.625140  0.252516  1
  O  O21  1  0.236111  0.874753  0.752469  1
  O  O22  1  0.736173  0.374719  0.747839  1
  O  O23  1  0.763907  0.874715  0.752951  1
  O  O24  1  0.263967  0.374748  0.747454  1
  O  O25  1  0.095634  0.225864  0.254189  1
  O  O26  1  0.595585  0.725853  0.246213  1
  O  O27  1  0.904500  0.225854  0.254270  1
  O  O28  1  0.404452  0.725863  0.245995  1
  O  O29  1  0.095590  0.774005  0.746068  1
  O  O30  1  0.595639  0.273994  0.754333  1
  O  O31  1  0.904457  0.773994  0.746147  1
  O  O32  1  0.404503  0.274004  0.754114  1
  O  O33  1  0.254958  0.255967  0.034808  1
  O  O34  1  0.745136  0.743889  0.965533  1
  O  O35  1  0.745143  0.255894  0.035072  1
  O  O36  1  0.254943  0.743962  0.965271  1
  O  O37  1  0.245102  0.755934  0.465287  1
  O  O38  1  0.754991  0.243927  0.535064  1
  O  O39  1  0.754909  0.755935  0.465527  1
  O  O40  1  0.245178  0.243926  0.534820  1
  O  O41  1  0.000063  0.316961  0.542356  1
  O  O42  1  0.499970  0.833508  0.456335  1
  O  O43  1  0.000030  0.666351  0.956342  1
  O  O44  1  0.500007  0.182896  0.042330  1
  O  O45  1  0.000028  0.682899  0.457992  1
  O  O46  1  0.500121  0.166352  0.543977  1
  O  O47  1  0.000059  0.333508  0.043995  1
  O  O48  1  0.500082  0.816960  0.957977  1
  Si  Si49  1  0.297332  0.049967  0.250839  1
  Si  Si50  1  0.797305  0.549953  0.250104  1
  Si  Si51  1  0.702787  0.049954  0.249647  1
  Si  Si52  1  0.202759  0.549967  0.250046  1
  Si  Si53  1  0.297304  0.949904  0.750637  1
  Si  Si54  1  0.797331  0.449890  0.750305  1
  Si  Si55  1  0.702757  0.949890  0.749446  1
  Si  Si56  1  0.202784  0.449904  0.750248  1
  Si  Si57  1  0.207736  0.211235  0.267412  1
  Si  Si58  1  0.707679  0.711206  0.232932  1
  Si  Si59  1  0.792411  0.211203  0.267692  1
  Si  Si60  1  0.292351  0.711234  0.232654  1
  Si  Si61  1  0.207679  0.788656  0.732656  1
  Si  Si62  1  0.707736  0.288626  0.767692  1
  Si  Si63  1  0.792355  0.788624  0.732931  1
  Si  Si64  1  0.292413  0.288654  0.767410  1
  Si  Si65  1  0.000058  0.274007  0.272849  1
  Si  Si66  1  0.500031  0.774008  0.227483  1
  Si  Si67  1  0.000030  0.725853  0.727493  1
  Si  Si68  1  0.500060  0.225853  0.772831  1
  Si  Si69  1  0.500069  0.124263  0.272916  1
  Si  Si70  1  0.000028  0.624262  0.227408  1
  Si  Si71  1  0.500021  0.875598  0.727398  1
  Si  Si72  1  0.000062  0.375597  0.772934  1
