# generated using pymatgen
data_SiO2
_symmetry_space_group_name_H-M   'P 1'
_cell_length_a   29.55094635
_cell_length_b   13.87556409
_cell_length_c   12.44431264
_cell_angle_alpha   90.00000000
_cell_angle_beta   104.91000000
_cell_angle_gamma   90.00000000
_symmetry_Int_Tables_number   1
_chemical_formula_structural   SiO2
_chemical_formula_sum   'Si76 O152'
_cell_volume   4930.81774307
_cell_formula_units_Z   76
loop_
 _symmetry_equiv_pos_site_id
 _symmetry_equiv_pos_as_xyz
  1  'x, y, z'
loop_
 _atom_site_type_symbol
 _atom_site_label
 _atom_site_symmetry_multiplicity
 _atom_site_fract_x
 _atom_site_fract_y
 _atom_site_fract_z
 _atom_site_occupancy
  O  O1  1  0.086631  0.172434  0.250759  1
  O  O2  1  0.006147  0.134567  0.856693  1
  O  O3  1  0.066128  0.000129  0.907254  1
  O  O4  1  0.060246  0.124510  0.048654  1
  O  O5  1  0.099951  0.172430  0.895639  1
  Si  Si6  1  0.292806  0.499908  0.058346  1
  O  O7  1  0.267388  0.499915  0.154845  1
  O  O8  1  0.196615  0.403170  0.159159  1
  O  O9  1  0.303457  0.096619  0.840704  1
  Si  Si10  1  0.227519  0.499927  0.454387  1
  O  O11  1  0.207561  0.402113  0.780366  1
  O  O12  1  0.292538  0.097775  0.220136  1
  O  O13  1  0.224900  0.000045  0.244010  1
  Si  Si14  1  0.223016  0.499910  0.202973  1
  O  O15  1  0.255325  0.499929  0.943665  1
  O  O16  1  0.274637  0.499950  0.548345  1
  Si  Si17  1  0.140976  0.194218  0.300017  1
  O  O18  1  0.164111  0.092621  0.310201  1
  O  O19  1  0.203130  0.403746  0.477253  1
  O  O20  1  0.297519  0.095979  0.522133  1
  O  O21  1  0.169894  0.240039  0.812478  1
  O  O22  1  0.330171  0.259727  0.187457  1
  O  O23  1  0.256387  0.251304  0.813006  1
  O  O24  1  0.243636  0.248465  0.186148  1
  O  O25  1  0.196405  0.277008  0.627856  1
  O  O26  1  0.302926  0.224142  0.371760  1
  O  O27  1  0.161103  0.245387  0.415321  1
  O  O28  1  0.250113  0.249004  0.501989  1
  O  O29  1  0.160844  0.249069  0.212378  1
  O  O30  1  0.173199  0.259360  0.018167  1
  O  O31  1  0.326764  0.240474  0.981537  1
  O  O32  1  0.178352  0.094097  0.938313  1
  O  O33  1  0.321803  0.405630  0.061629  1
  Si  Si34  1  0.048112  0.111415  0.163621  1
  Si  Si35  1  0.058717  0.111427  0.922507  1
  Si  Si36  1  0.206093  0.290290  0.756934  1
  Si  Si37  1  0.293877  0.209727  0.242977  1
  Si  Si38  1  0.201939  0.293459  0.506991  1
  Si  Si39  1  0.298181  0.206619  0.493063  1
  Si  Si40  1  0.193165  0.290498  0.142377  1
  Si  Si41  1  0.306857  0.209308  0.857295  1
  Si  Si42  1  0.153990  0.194453  0.912863  1
  O  O43  1  0.235506  0.499943  0.333850  1
  O  O44  1  0.053923  0.000149  0.189626  1
  Si  Si45  1  0.234221  0.499937  0.814732  1
  Si  Si46  1  0.305923  0.499941  0.670715  1
  O  O47  1  0.086651  0.827737  0.250754  1
  O  O48  1  0.006124  0.865770  0.856583  1
  O  O49  1  0.060295  0.875767  0.048606  1
  O  O50  1  0.099897  0.827725  0.895522  1
  O  O51  1  0.232709  0.999915  0.844737  1
  O  O52  1  0.303424  0.903152  0.840612  1
  O  O53  1  0.196581  0.596597  0.159064  1
  Si  Si54  1  0.207426  0.999907  0.941539  1
  O  O55  1  0.292473  0.902040  0.220179  1
  O  O56  1  0.207497  0.597701  0.780411  1
  O  O57  1  0.244963  0.999930  0.056217  1
  O  O58  1  0.164210  0.907136  0.310094  1
  O  O59  1  0.297499  0.903846  0.522111  1
  O  O60  1  0.203092  0.596066  0.477226  1
  O  O61  1  0.330073  0.740105  0.187418  1
  O  O62  1  0.169794  0.759795  0.812446  1
  O  O63  1  0.243528  0.751395  0.186034  1
  O  O64  1  0.256280  0.748559  0.812899  1
  O  O65  1  0.302808  0.775604  0.371729  1
  O  O66  1  0.196289  0.722746  0.627831  1
  O  O67  1  0.161067  0.754489  0.415301  1
  O  O68  1  0.250080  0.750711  0.502140  1
  O  O69  1  0.160759  0.750613  0.212348  1
  O  O70  1  0.326625  0.759338  0.981466  1
  O  O71  1  0.173057  0.740453  0.018092  1
  O  O72  1  0.321822  0.594166  0.061668  1
  O  O73  1  0.178371  0.905697  0.938352  1
  Si  Si74  1  0.048194  0.888877  0.163610  1
  Si  Si75  1  0.058691  0.888831  0.922414  1
  Si  Si76  1  0.293772  0.790078  0.242942  1
  Si  Si77  1  0.205990  0.709518  0.756912  1
  Si  Si78  1  0.298111  0.793192  0.493060  1
  Si  Si79  1  0.201870  0.706342  0.506991  1
  Si  Si80  1  0.306767  0.790459  0.857199  1
  Si  Si81  1  0.193074  0.709267  0.142276  1
  Si  Si82  1  0.153916  0.805441  0.912823  1
  Si  Si83  1  0.140966  0.805653  0.299987  1
  Si  Si84  1  0.277097  0.999912  0.796607  1
  Si  Si85  1  0.194319  0.999943  0.329422  1
  O  O86  1  0.225871  0.999951  0.451504  1
  O  O87  1  0.264937  0.999943  0.665762  1
  Si  Si88  1  0.273046  0.999929  0.545297  1
  O  O89  1  0.275064  0.500044  0.755525  1
  Si  Si90  1  0.265897  0.999937  0.185287  1
  O  O91  1  0.586574  0.327816  0.250898  1
  O  O92  1  0.413507  0.327662  0.749401  1
  O  O93  1  0.493863  0.365779  0.143583  1
  O  O94  1  0.506153  0.365771  0.856741  1
  Si  Si95  1  0.359193  0.305587  0.700030  1
  O  O96  1  0.560252  0.375857  0.048773  1
  O  O97  1  0.439765  0.375836  0.951545  1
  O  O98  1  0.599848  0.327526  0.895817  1
  O  O99  1  0.400108  0.327440  0.104294  1
  Si  Si100  1  0.640894  0.305675  0.300051  1
  O  O101  1  0.336003  0.407128  0.690313  1
  O  O102  1  0.664188  0.407087  0.309549  1
  O  O103  1  0.661043  0.254967  0.415622  1
  O  O104  1  0.339164  0.254720  0.584455  1
  O  O105  1  0.660624  0.250144  0.212622  1
  O  O106  1  0.339343  0.250450  0.787531  1
  Si  Si107  1  0.548105  0.388925  0.163725  1
  Si  Si108  1  0.451921  0.388873  0.836593  1
  Si  Si109  1  0.558710  0.388885  0.922614  1
  Si  Si110  1  0.441289  0.388828  0.077686  1
  Si  Si111  1  0.653842  0.305073  0.913099  1
  Si  Si112  1  0.346076  0.305191  0.086973  1
  O  O113  1  0.413532  0.672513  0.749398  1
  O  O114  1  0.586556  0.672580  0.250676  1
  O  O115  1  0.506238  0.634555  0.856626  1
  O  O116  1  0.493839  0.634553  0.143470  1
  O  O117  1  0.553858  0.500208  0.189687  1
  O  O118  1  0.439814  0.624440  0.951501  1
  O  O119  1  0.560269  0.624521  0.048612  1
  O  O120  1  0.400053  0.672713  0.104178  1
  O  O121  1  0.600076  0.672536  0.895813  1
  O  O122  1  0.566205  0.500159  0.907339  1
  O  O123  1  0.663942  0.592569  0.310407  1
  O  O124  1  0.336102  0.592625  0.690213  1
  O  O125  1  0.339130  0.745142  0.584426  1
  O  O126  1  0.660928  0.745592  0.415383  1
  O  O127  1  0.339259  0.749239  0.787503  1
  O  O128  1  0.660888  0.748774  0.212345  1
  Si  Si129  1  0.451996  0.611415  0.836579  1
  Si  Si130  1  0.548086  0.611467  0.163532  1
  Si  Si131  1  0.441272  0.611428  0.077607  1
  Si  Si132  1  0.558810  0.611481  0.922509  1
  Si  Si133  1  0.346001  0.694704  0.086933  1
  Si  Si134  1  0.654143  0.694354  0.912967  1
  Si  Si135  1  0.359186  0.694276  0.700015  1
  Si  Si136  1  0.640903  0.694286  0.300047  1
  O  O137  1  0.433825  0.500129  0.092905  1
  O  O138  1  0.446192  0.500148  0.810498  1
  O  O139  1  0.913453  0.172595  0.749543  1
  O  O140  1  0.993870  0.134552  0.143634  1
  O  O141  1  0.939771  0.124529  0.951682  1
  O  O142  1  0.900001  0.172514  0.104476  1
  O  O143  1  0.933902  0.000160  0.093000  1
  O  O144  1  0.803352  0.402731  0.840773  1
  O  O145  1  0.696510  0.096178  0.159221  1
  O  O146  1  0.764733  0.499692  0.666031  1
  O  O147  1  0.792357  0.401632  0.220277  1
  O  O148  1  0.707378  0.097292  0.780498  1
  Si  Si149  1  0.765863  0.499577  0.185361  1
  Si  Si150  1  0.859111  0.194301  0.700079  1
  Si  Si151  1  0.777067  0.499561  0.796893  1
  Si  Si152  1  0.845932  0.194334  0.087209  1
  O  O153  1  0.836080  0.092574  0.689676  1
  O  O154  1  0.797293  0.404141  0.522103  1
  O  O155  1  0.702920  0.096386  0.477208  1
  O  O156  1  0.829958  0.239661  0.187700  1
  O  O157  1  0.669681  0.259349  0.812721  1
  O  O158  1  0.743409  0.251030  0.186402  1
  O  O159  1  0.756160  0.248192  0.813262  1
  O  O160  1  0.802713  0.275556  0.372007  1
  O  O161  1  0.696193  0.222689  0.628097  1
  O  O162  1  0.839105  0.245623  0.584753  1
  O  O163  1  0.750081  0.250818  0.502657  1
  O  O164  1  0.839125  0.248768  0.787782  1
  O  O165  1  0.826542  0.259022  0.981780  1
  O  O166  1  0.672976  0.240136  0.018404  1
  O  O167  1  0.821746  0.093816  0.061766  1
  O  O168  1  0.678296  0.405344  0.938456  1
  Si  Si169  1  0.951909  0.111465  0.836714  1
  Si  Si170  1  0.941283  0.111485  0.077819  1
  Si  Si171  1  0.793664  0.289720  0.243182  1
  Si  Si172  1  0.705881  0.209155  0.757137  1
  Si  Si173  1  0.798045  0.293453  0.493304  1
  Si  Si174  1  0.701808  0.206618  0.507237  1
  Si  Si175  1  0.806659  0.290050  0.857483  1
  Si  Si176  1  0.692966  0.208860  0.142559  1
  O  O177  1  0.946125  0.000208  0.810565  1
  Si  Si178  1  0.707340  0.499568  0.941675  1
  O  O179  1  0.732689  0.499630  0.845026  1
  O  O180  1  0.775101  0.000317  0.755819  1
  O  O181  1  0.725620  0.499979  0.451646  1
  O  O182  1  0.744847  0.499475  0.056357  1
  Si  Si183  1  0.727252  0.000071  0.454602  1
  Si  Si184  1  0.694208  0.499987  0.329406  1
  O  O185  1  0.913434  0.827803  0.749325  1
  O  O186  1  0.993954  0.865768  0.143524  1
  Si  Si187  1  0.792719  0.999569  0.058472  1
  O  O188  1  0.939787  0.875846  0.951515  1
  O  O189  1  0.900232  0.827546  0.104474  1
  Si  Si190  1  0.772768  0.500070  0.545521  1
  O  O191  1  0.767366  0.999631  0.155120  1
  O  O192  1  0.696697  0.902734  0.159395  1
  O  O193  1  0.803540  0.596180  0.840950  1
  O  O194  1  0.735309  0.999692  0.334111  1
  O  O195  1  0.707692  0.901634  0.779858  1
  O  O196  1  0.792670  0.597297  0.219635  1
  Si  Si197  1  0.722988  0.999561  0.203253  1
  Si  Si198  1  0.734185  0.999577  0.814794  1
  O  O199  1  0.835834  0.907078  0.690536  1
  O  O200  1  0.702730  0.904131  0.478009  1
  O  O201  1  0.797101  0.596376  0.522903  1
  O  O202  1  0.670087  0.739675  0.812444  1
  O  O203  1  0.830363  0.759364  0.187427  1
  O  O204  1  0.756632  0.751022  0.813798  1
  O  O205  1  0.743881  0.748187  0.186938  1
  O  O206  1  0.697342  0.775542  0.628127  1
  O  O207  1  0.803861  0.722675  0.372038  1
  O  O208  1  0.838989  0.754935  0.584517  1
  O  O209  1  0.749954  0.750827  0.497436  1
  O  O210  1  0.839389  0.750148  0.787505  1
  O  O211  1  0.673539  0.759035  0.018396  1
  O  O212  1  0.827103  0.740149  0.981769  1
  O  O213  1  0.678320  0.593820  0.938386  1
  O  O214  1  0.821772  0.905353  0.061699  1
  Si  Si215  1  0.951898  0.888924  0.836524  1
  Si  Si216  1  0.941375  0.888879  0.077701  1
  Si  Si217  1  0.706384  0.789719  0.756954  1
  Si  Si218  1  0.794166  0.709155  0.243003  1
  Si  Si219  1  0.701989  0.793442  0.506817  1
  Si  Si220  1  0.798228  0.706608  0.492888  1
  Si  Si221  1  0.693384  0.790054  0.142707  1
  Si  Si222  1  0.807077  0.708862  0.857629  1
  Si  Si223  1  0.846236  0.805100  0.087075  1
  Si  Si224  1  0.859118  0.805653  0.700068  1
  O  O225  1  0.724941  0.500319  0.244319  1
  O  O226  1  0.755210  0.999474  0.943793  1
  O  O227  1  0.774397  0.999980  0.548479  1
  Si  Si228  1  0.805818  0.999984  0.670703  1
