# generated using pymatgen
data_SiO2
_symmetry_space_group_name_H-M   'P 1'
_cell_length_a   24.93593663
_cell_length_b   12.70128613
_cell_length_c   11.41729918
_cell_angle_alpha   90.00000000
_cell_angle_beta   90.00000000
_cell_angle_gamma   90.00000000
_symmetry_Int_Tables_number   1
_chemical_formula_structural   SiO2
_chemical_formula_sum   'Si60 O120'
_cell_volume   3616.06948325
_cell_formula_units_Z   60
loop_
 _symmetry_equiv_pos_site_id
 _symmetry_equiv_pos_as_xyz
  1  'x, y, z'
loop_
 _atom_site_type_symbol
 _atom_site_label
 _atom_site_symmetry_multiplicity
 _atom_site_fract_x
 _atom_site_fract_y
 _atom_site_fract_z
 _atom_site_occupancy
  Si  Si1  1  0.325190  0.121647  0.000055  1
  Si  Si2  1  0.167142  0.189041  0.751452  1
  O  O3  1  0.070439  0.141845  0.500038  1
  O  O4  1  0.107033  0.175262  0.289560  1
  O  O5  1  0.107036  0.175283  0.710517  1
  Si  Si6  1  0.200775  0.121515  0.000061  1
  O  O7  1  0.284746  0.360303  0.347617  1
  O  O8  1  0.284756  0.360323  0.652553  1
  O  O9  1  0.189553  0.298452  0.290089  1
  O  O10  1  0.189563  0.298470  0.710100  1
  O  O11  1  0.212673  0.360262  0.500094  1
  O  O12  1  0.000017  0.146641  0.660674  1
  O  O13  1  0.212288  0.499820  0.658456  1
  O  O14  1  0.175758  0.169332  0.114381  1
  O  O15  1  0.175736  0.169296  0.885745  1
  O  O16  1  0.200227  0.101583  0.312204  1
  O  O17  1  0.200230  0.101605  0.687911  1
  O  O18  1  0.263014  0.137645  0.000028  1
  Si  Si19  1  0.061448  0.121763  0.364952  1
  Si  Si20  1  0.061456  0.121769  0.635127  1
  Si  Si21  1  0.222892  0.378782  0.365173  1
  Si  Si22  1  0.222900  0.378799  0.635010  1
  Si  Si23  1  0.167146  0.189034  0.248676  1
  O  O24  1  0.212279  0.499800  0.341713  1
  O  O25  1  0.000008  0.146641  0.339431  1
  Si  Si26  1  0.225144  0.999818  0.635225  1
  O  O27  1  0.286961  0.999826  0.342789  1
  O  O28  1  0.070435  0.857841  0.500042  1
  O  O29  1  0.107038  0.824399  0.710513  1
  O  O30  1  0.107029  0.824392  0.289578  1
  Si  Si31  1  0.225141  0.999800  0.364901  1
  O  O32  1  0.284768  0.639292  0.652544  1
  O  O33  1  0.284758  0.639273  0.347578  1
  O  O34  1  0.189561  0.701172  0.710043  1
  O  O35  1  0.189548  0.701149  0.290103  1
  O  O36  1  0.212693  0.639352  0.500073  1
  O  O37  1  0.175742  0.830258  0.885744  1
  O  O38  1  0.175751  0.830230  0.114387  1
  O  O39  1  0.200244  0.898039  0.687960  1
  O  O40  1  0.200238  0.898016  0.312180  1
  O  O41  1  0.191218  0.999770  0.000089  1
  O  O42  1  0.263020  0.861882  0.000054  1
  Si  Si43  1  0.325197  0.877883  0.000059  1
  O  O44  1  0.286963  0.999847  0.657344  1
  O  O45  1  0.215811  0.999784  0.500064  1
  Si  Si46  1  0.061458  0.877924  0.635132  1
  Si  Si47  1  0.061447  0.877919  0.364955  1
  Si  Si48  1  0.222911  0.620835  0.634992  1
  Si  Si49  1  0.222902  0.620818  0.365154  1
  Si  Si50  1  0.167143  0.810588  0.751436  1
  Si  Si51  1  0.167139  0.810568  0.248691  1
  Si  Si52  1  0.200781  0.878026  0.000068  1
  O  O53  1  0.000013  0.853104  0.660675  1
  O  O54  1  0.067817  0.999840  0.348257  1
  O  O55  1  0.067829  0.999847  0.651823  1
  O  O56  1  0.000000  0.853103  0.339433  1
  O  O57  1  0.377155  0.298924  0.283179  1
  O  O58  1  0.622841  0.299137  0.716987  1
  O  O59  1  0.377170  0.298949  0.716969  1
  O  O60  1  0.622816  0.299158  0.283202  1
  O  O61  1  0.642859  0.499974  0.657749  1
  O  O62  1  0.356939  0.358559  0.500074  1
  O  O63  1  0.643068  0.358768  0.500090  1
  O  O64  1  0.373034  0.100920  0.308995  1
  O  O65  1  0.627054  0.101161  0.691150  1
  O  O66  1  0.373034  0.100952  0.691130  1
  O  O67  1  0.627019  0.101188  0.309095  1
  O  O68  1  0.351175  0.171655  0.111701  1
  O  O69  1  0.648820  0.171898  0.888495  1
  O  O70  1  0.351197  0.171673  0.888444  1
  O  O71  1  0.648822  0.171885  0.111749  1
  O  O72  1  0.447610  0.172829  0.184543  1
  O  O73  1  0.552404  0.172868  0.815487  1
  O  O74  1  0.447626  0.172823  0.815564  1
  O  O75  1  0.552390  0.172877  0.184669  1
  Si  Si76  1  0.500018  0.121599  0.135830  1
  O  O77  1  0.500054  0.133117  0.000067  1
  Si  Si78  1  0.500027  0.121592  0.864306  1
  Si  Si79  1  0.346669  0.378716  0.365140  1
  Si  Si80  1  0.653342  0.378915  0.635024  1
  Si  Si81  1  0.346678  0.378734  0.635008  1
  Si  Si82  1  0.653326  0.378934  0.365154  1
  Si  Si83  1  0.387886  0.190343  0.220990  1
  Si  Si84  1  0.612132  0.190533  0.779157  1
  Si  Si85  1  0.387900  0.190360  0.779143  1
  Si  Si86  1  0.612112  0.190543  0.221048  1
  O  O87  1  0.357175  0.499793  0.657708  1
  O  O88  1  0.357164  0.499771  0.342415  1
  O  O89  1  0.642838  0.499997  0.342456  1
  O  O90  1  0.663782  0.000002  0.000111  1
  O  O91  1  0.622846  0.700850  0.283230  1
  O  O92  1  0.377195  0.700635  0.716937  1
  O  O93  1  0.622870  0.700817  0.717018  1
  O  O94  1  0.377183  0.700609  0.283155  1
  Si  Si95  1  0.651162  0.999958  0.635181  1
  Si  Si96  1  0.348868  0.999807  0.635137  1
  Si  Si97  1  0.499999  0.878170  0.864315  1
  O  O98  1  0.643081  0.641209  0.500116  1
  O  O99  1  0.356949  0.641001  0.500050  1
  O  O100  1  0.626971  0.898852  0.309048  1
  O  O101  1  0.372988  0.898612  0.691100  1
  O  O102  1  0.626994  0.898818  0.691179  1
  O  O103  1  0.372982  0.898579  0.309050  1
  O  O104  1  0.648840  0.828114  0.111757  1
  O  O105  1  0.351203  0.827872  0.888436  1
  O  O106  1  0.648826  0.828099  0.888498  1
  O  O107  1  0.351199  0.827885  0.111691  1
  O  O108  1  0.552401  0.826953  0.184571  1
  O  O109  1  0.447625  0.826898  0.815474  1
  O  O110  1  0.552403  0.826929  0.815597  1
  O  O111  1  0.447622  0.826893  0.184667  1
  O  O112  1  0.336239  0.999766  0.000051  1
  Si  Si113  1  0.499995  0.878177  0.135839  1
  O  O114  1  0.357890  0.999809  0.500069  1
  O  O115  1  0.499963  0.866652  0.000077  1
  O  O116  1  0.500004  0.999888  0.159748  1
  Si  Si117  1  0.653338  0.621052  0.365178  1
  Si  Si118  1  0.346688  0.620852  0.634988  1
  Si  Si119  1  0.653355  0.621033  0.635045  1
  Si  Si120  1  0.346679  0.620834  0.365118  1
  Si  Si121  1  0.612122  0.809431  0.221036  1
  Si  Si122  1  0.387901  0.809236  0.779113  1
  Si  Si123  1  0.612131  0.809404  0.779188  1
  Si  Si124  1  0.387896  0.809224  0.221011  1
  Si  Si125  1  0.348865  0.999784  0.365001  1
  O  O126  1  0.500016  0.999880  0.840395  1
  O  O127  1  0.642129  0.999964  0.500116  1
  Si  Si128  1  0.651143  0.999988  0.365045  1
  O  O129  1  0.929585  0.141903  0.500068  1
  O  O130  1  0.892992  0.175345  0.710543  1
  O  O131  1  0.892980  0.175363  0.289614  1
  Si  Si132  1  0.832874  0.189178  0.248699  1
  O  O133  1  0.715263  0.360465  0.652551  1
  O  O134  1  0.715245  0.360488  0.347586  1
  O  O135  1  0.810473  0.298579  0.710014  1
  O  O136  1  0.810454  0.298599  0.290078  1
  O  O137  1  0.787324  0.360398  0.500048  1
  Si  Si138  1  0.674825  0.121885  0.000117  1
  O  O139  1  0.824271  0.169518  0.885746  1
  O  O140  1  0.824280  0.169498  0.114393  1
  O  O141  1  0.799787  0.101708  0.687964  1
  O  O142  1  0.799772  0.101733  0.312184  1
  O  O143  1  0.737002  0.137878  0.000098  1
  Si  Si144  1  0.799241  0.121729  0.000069  1
  Si  Si145  1  0.938571  0.121822  0.635155  1
  Si  Si146  1  0.938563  0.121826  0.364978  1
  Si  Si147  1  0.777119  0.378915  0.634972  1
  Si  Si148  1  0.777103  0.378933  0.365134  1
  Si  Si149  1  0.832883  0.189167  0.751439  1
  O  O150  1  0.787745  0.499929  0.658431  1
  O  O151  1  0.787726  0.499951  0.341687  1
  O  O152  1  0.929581  0.857900  0.500067  1
  O  O153  1  0.892974  0.824481  0.289599  1
  O  O154  1  0.892994  0.824472  0.710559  1
  O  O155  1  0.713046  0.999944  0.342816  1
  O  O156  1  0.715259  0.639455  0.347627  1
  O  O157  1  0.715279  0.639436  0.652563  1
  O  O158  1  0.810449  0.701301  0.290063  1
  O  O159  1  0.810476  0.701274  0.710075  1
  O  O160  1  0.787347  0.639488  0.500071  1
  Si  Si161  1  0.674829  0.878121  0.000114  1
  O  O162  1  0.824271  0.830447  0.114387  1
  O  O163  1  0.824272  0.830429  0.885753  1
  O  O164  1  0.799776  0.898169  0.312206  1
  O  O165  1  0.799802  0.898139  0.687913  1
  Si  Si166  1  0.799244  0.878240  0.000065  1
  O  O167  1  0.737004  0.862117  0.000081  1
  O  O168  1  0.713067  0.999898  0.657370  1
  O  O169  1  0.784208  0.999965  0.500070  1
  Si  Si170  1  0.938561  0.877982  0.364978  1
  Si  Si171  1  0.938573  0.877977  0.635154  1
  Si  Si172  1  0.777115  0.620969  0.365154  1
  Si  Si173  1  0.777132  0.620951  0.634991  1
  Si  Si174  1  0.832865  0.810724  0.248684  1
  Si  Si175  1  0.832884  0.810701  0.751463  1
  O  O176  1  0.932190  0.999904  0.348282  1
  Si  Si177  1  0.774885  0.999928  0.635235  1
  Si  Si178  1  0.774868  0.999954  0.364911  1
  O  O179  1  0.932202  0.999899  0.651850  1
  O  O180  1  0.808802  0.999984  0.000053  1
