# generated using pymatgen
data_SiO2
_symmetry_space_group_name_H-M   'P 1'
_cell_length_a   12.16011045
_cell_length_b   12.16651561
_cell_length_c   27.79371801
_cell_angle_alpha   90.00000000
_cell_angle_beta   90.00000000
_cell_angle_gamma   90.00000000
_symmetry_Int_Tables_number   1
_chemical_formula_structural   SiO2
_chemical_formula_sum   'Si64 O128'
_cell_volume   4111.97422887
_cell_formula_units_Z   64
loop_
 _symmetry_equiv_pos_site_id
 _symmetry_equiv_pos_as_xyz
  1  'x, y, z'
loop_
 _atom_site_type_symbol
 _atom_site_label
 _atom_site_symmetry_multiplicity
 _atom_site_fract_x
 _atom_site_fract_y
 _atom_site_fract_z
 _atom_site_occupancy
  O  O1  1  0.000046  0.289063  0.084850  1
  O  O2  1  0.103831  0.103666  0.065332  1
  O  O3  1  0.896256  0.103665  0.065324  1
  O  O4  1  0.352596  0.147354  0.250056  1
  O  O5  1  0.852555  0.352327  0.250004  1
  O  O6  1  0.647560  0.147307  0.250033  1
  O  O7  1  0.147526  0.352314  0.249992  1
  O  O8  1  0.352209  0.102716  0.160385  1
  O  O9  1  0.897137  0.352094  0.160319  1
  O  O10  1  0.647912  0.102709  0.160360  1
  O  O11  1  0.103046  0.352100  0.160298  1
  O  O12  1  0.500078  0.223855  0.196106  1
  O  O13  1  0.775926  0.499803  0.196101  1
  O  O14  1  0.224197  0.499815  0.196115  1
  O  O15  1  0.000044  0.275793  0.303934  1
  Si  Si16  1  0.000073  0.373150  0.127597  1
  O  O17  1  0.297124  0.296849  0.190775  1
  O  O18  1  0.703038  0.296825  0.190760  1
  O  O19  1  0.202996  0.202816  0.309271  1
  O  O20  1  0.797100  0.202784  0.309268  1
  Si  Si21  1  0.304745  0.125721  0.301566  1
  Si  Si22  1  0.874110  0.304563  0.301533  1
  Si  Si23  1  0.000045  0.178692  0.055457  1
  Si  Si24  1  0.695351  0.125694  0.301555  1
  Si  Si25  1  0.374145  0.195083  0.198520  1
  Si  Si26  1  0.804767  0.373936  0.198480  1
  Si  Si27  1  0.626008  0.195064  0.198503  1
  Si  Si28  1  0.195373  0.373943  0.198480  1
  Si  Si29  1  0.125973  0.304579  0.301526  1
  O  O30  1  0.000065  0.499877  0.114571  1
  O  O31  1  0.000058  0.203540  0.000010  1
  O  O32  1  0.789207  0.499911  0.584878  1
  O  O33  1  0.210841  0.499902  0.584879  1
  O  O34  1  0.500009  0.210727  0.584870  1
  O  O35  1  0.210847  0.499818  0.415162  1
  O  O36  1  0.500067  0.210673  0.415184  1
  O  O37  1  0.703700  0.499879  0.500021  1
  O  O38  1  0.500032  0.296214  0.500026  1
  O  O39  1  0.396238  0.396120  0.565335  1
  O  O40  1  0.603812  0.396120  0.565337  1
  O  O41  1  0.396245  0.396067  0.434710  1
  O  O42  1  0.603821  0.396081  0.434712  1
  O  O43  1  0.147867  0.396944  0.660348  1
  O  O44  1  0.602951  0.147643  0.660322  1
  O  O45  1  0.852172  0.397008  0.660360  1
  O  O46  1  0.397041  0.147629  0.660320  1
  O  O47  1  0.147891  0.396939  0.339667  1
  O  O48  1  0.602993  0.147586  0.339718  1
  O  O49  1  0.852178  0.396900  0.339684  1
  O  O50  1  0.397076  0.147581  0.339744  1
  Si  Si51  1  0.873250  0.499823  0.372386  1
  Si  Si52  1  0.321229  0.499890  0.555464  1
  Si  Si53  1  0.500025  0.321089  0.555471  1
  Si  Si54  1  0.321238  0.499843  0.444575  1
  Si  Si55  1  0.500038  0.321046  0.444578  1
  Si  Si56  1  0.873244  0.499923  0.627654  1
  Si  Si57  1  0.126808  0.499889  0.627658  1
  Si  Si58  1  0.500000  0.126613  0.627607  1
  Si  Si59  1  0.126813  0.499835  0.372385  1
  Si  Si60  1  0.500056  0.126563  0.372444  1
  O  O61  1  0.789212  0.499843  0.415162  1
  O  O62  1  0.296351  0.499865  0.500019  1
  O  O63  1  0.000027  0.499912  0.614641  1
  O  O64  1  0.000031  0.499814  0.385401  1
  Si  Si65  1  0.678821  0.499860  0.444576  1
  Si  Si66  1  0.678815  0.499896  0.555465  1
  Si  Si67  1  0.000041  0.373167  0.872433  1
  O  O68  1  0.000066  0.289047  0.915167  1
  Si  Si69  1  0.304706  0.125751  0.698495  1
  O  O70  1  0.103862  0.103652  0.934706  1
  O  O71  1  0.896284  0.103653  0.934696  1
  O  O72  1  0.147520  0.352411  0.750028  1
  O  O73  1  0.647515  0.147410  0.750005  1
  O  O74  1  0.852527  0.352416  0.750035  1
  O  O75  1  0.352535  0.147374  0.750010  1
  O  O76  1  0.352192  0.102819  0.839691  1
  O  O77  1  0.897079  0.352150  0.839721  1
  O  O78  1  0.647899  0.102827  0.839680  1
  O  O79  1  0.102990  0.352157  0.839714  1
  O  O80  1  0.000007  0.275858  0.696109  1
  Si  Si81  1  0.374098  0.195153  0.801536  1
  O  O82  1  0.500028  0.223941  0.803936  1
  O  O83  1  0.775916  0.499909  0.803930  1
  O  O84  1  0.202950  0.202835  0.690784  1
  O  O85  1  0.797049  0.202894  0.690766  1
  O  O86  1  0.297079  0.296926  0.809264  1
  O  O87  1  0.702975  0.296949  0.809269  1
  Si  Si88  1  0.195339  0.374026  0.801546  1
  O  O89  1  0.000036  0.499887  0.885471  1
  Si  Si90  1  0.625962  0.195172  0.801534  1
  Si  Si91  1  0.804727  0.374035  0.801555  1
  Si  Si92  1  0.000071  0.178682  0.944564  1
  Si  Si93  1  0.125943  0.304620  0.698506  1
  Si  Si94  1  0.695314  0.125788  0.698485  1
  Si  Si95  1  0.874079  0.304655  0.698505  1
  O  O96  1  0.224173  0.499895  0.803924  1
  O  O97  1  0.289223  0.999889  0.084888  1
  O  O98  1  0.710855  0.999870  0.084862  1
  O  O99  1  0.000059  0.710724  0.084880  1
  O  O100  1  0.203734  0.999885  0.000028  1
  O  O101  1  0.000059  0.796221  0.000030  1
  O  O102  1  0.896260  0.896111  0.065333  1
  O  O103  1  0.103835  0.896116  0.065341  1
  O  O104  1  0.647569  0.852359  0.250014  1
  O  O105  1  0.147556  0.647291  0.250016  1
  O  O106  1  0.352548  0.852360  0.250028  1
  O  O107  1  0.852535  0.647285  0.250006  1
  O  O108  1  0.647896  0.896859  0.160326  1
  O  O109  1  0.103018  0.647588  0.160330  1
  O  O110  1  0.352207  0.896868  0.160343  1
  O  O111  1  0.897104  0.647587  0.160326  1
  O  O112  1  0.500055  0.775775  0.196112  1
  O  O113  1  0.000033  0.723870  0.303920  1
  O  O114  1  0.275905  0.999851  0.303924  1
  O  O115  1  0.702992  0.702765  0.190769  1
  O  O116  1  0.297115  0.702773  0.190786  1
  O  O117  1  0.797082  0.796849  0.309259  1
  O  O118  1  0.202977  0.796885  0.309257  1
  Si  Si119  1  0.000065  0.626596  0.127611  1
  Si  Si120  1  0.000051  0.821082  0.055476  1
  Si  Si121  1  0.625988  0.804552  0.198494  1
  Si  Si122  1  0.195366  0.625684  0.198497  1
  Si  Si123  1  0.374124  0.804556  0.198507  1
  Si  Si124  1  0.804742  0.625677  0.198484  1
  Si  Si125  1  0.874103  0.695078  0.301529  1
  Si  Si126  1  0.304724  0.873979  0.301545  1
  Si  Si127  1  0.125968  0.695101  0.301535  1
  Si  Si128  1  0.695345  0.873952  0.301540  1
  Si  Si129  1  0.373266  0.999828  0.127662  1
  Si  Si130  1  0.626827  0.999816  0.127643  1
  O  O131  1  0.724173  0.999821  0.303932  1
  O  O132  1  0.500042  0.999838  0.114636  1
  Si  Si133  1  0.178840  0.999890  0.055471  1
  Si  Si134  1  0.821257  0.999884  0.055456  1
  O  O135  1  0.796389  0.999885  0.000011  1
  O  O136  1  0.500019  0.789061  0.584860  1
  Si  Si137  1  0.500038  0.873116  0.372423  1
  O  O138  1  0.500031  0.789008  0.415161  1
  O  O139  1  0.500018  0.703539  0.500012  1
  Si  Si140  1  0.500031  0.873167  0.627601  1
  O  O141  1  0.603809  0.603672  0.565328  1
  O  O142  1  0.396231  0.603670  0.565327  1
  O  O143  1  0.603811  0.603629  0.434705  1
  O  O144  1  0.396237  0.603620  0.434704  1
  O  O145  1  0.852180  0.602857  0.660351  1
  O  O146  1  0.397090  0.852141  0.660324  1
  O  O147  1  0.147885  0.602794  0.660370  1
  O  O148  1  0.603001  0.852159  0.660309  1
  O  O149  1  0.852195  0.602749  0.339685  1
  O  O150  1  0.397069  0.852110  0.339715  1
  O  O151  1  0.147874  0.602787  0.339699  1
  O  O152  1  0.602975  0.852076  0.339699  1
  Si  Si153  1  0.500021  0.678657  0.444567  1
  Si  Si154  1  0.500019  0.678697  0.555461  1
  O  O155  1  0.500064  0.999834  0.385466  1
  O  O156  1  0.500011  0.999891  0.614571  1
  O  O157  1  0.000054  0.710710  0.915185  1
  O  O158  1  0.289258  0.999877  0.915173  1
  Si  Si159  1  0.821276  0.999881  0.944567  1
  O  O160  1  0.896283  0.896103  0.934708  1
  O  O161  1  0.103860  0.896097  0.934717  1
  O  O162  1  0.852553  0.647397  0.750032  1
  O  O163  1  0.352549  0.852396  0.750011  1
  O  O164  1  0.147518  0.647399  0.750045  1
  O  O165  1  0.647518  0.852411  0.749999  1
  O  O166  1  0.647901  0.896977  0.839676  1
  O  O167  1  0.103008  0.647630  0.839733  1
  O  O168  1  0.352207  0.896969  0.839689  1
  O  O169  1  0.897097  0.647648  0.839723  1
  O  O170  1  0.000043  0.723949  0.696108  1
  O  O171  1  0.275896  0.999877  0.696120  1
  O  O172  1  0.724150  0.999920  0.696112  1
  O  O173  1  0.500047  0.775848  0.803934  1
  O  O174  1  0.797097  0.796964  0.690777  1
  O  O175  1  0.202999  0.796911  0.690776  1
  O  O176  1  0.703002  0.702869  0.809262  1
  O  O177  1  0.297095  0.702857  0.809273  1
  Si  Si178  1  0.000067  0.821075  0.944583  1
  Si  Si179  1  0.874107  0.695184  0.698507  1
  Si  Si180  1  0.304740  0.874010  0.698492  1
  Si  Si181  1  0.125970  0.695149  0.698513  1
  Si  Si182  1  0.695337  0.874045  0.698483  1
  Si  Si183  1  0.625977  0.804636  0.801527  1
  Si  Si184  1  0.195347  0.625767  0.801559  1
  Si  Si185  1  0.374115  0.804628  0.801539  1
  Si  Si186  1  0.804750  0.625778  0.801552  1
  Si  Si187  1  0.000043  0.626612  0.872442  1
  Si  Si188  1  0.373281  0.999893  0.872390  1
  O  O189  1  0.710887  0.999884  0.915153  1
  O  O190  1  0.500065  0.999898  0.885401  1
  Si  Si191  1  0.626843  0.999898  0.872380  1
  Si  Si192  1  0.178863  0.999877  0.944582  1
