# generated using pymatgen
data_SiO2
_symmetry_space_group_name_H-M   'P 1'
_cell_length_a   21.43020344
_cell_length_b   13.14980435
_cell_length_c   9.70786557
_cell_angle_alpha   90.00000000
_cell_angle_beta   108.36700000
_cell_angle_gamma   90.00000000
_symmetry_Int_Tables_number   1
_chemical_formula_structural   SiO2
_chemical_formula_sum   'Si40 O80'
_cell_volume   2596.34222092
_cell_formula_units_Z   40
loop_
 _symmetry_equiv_pos_site_id
 _symmetry_equiv_pos_as_xyz
  1  'x, y, z'
loop_
 _atom_site_type_symbol
 _atom_site_label
 _atom_site_symmetry_multiplicity
 _atom_site_fract_x
 _atom_site_fract_y
 _atom_site_fract_z
 _atom_site_occupancy
  O  O1  1  0.673042  0.134741  0.204553  1
  O  O2  1  0.173029  0.634762  0.204476  1
  O  O3  1  0.327077  0.134761  0.795676  1
  O  O4  1  0.827084  0.634742  0.795765  1
  O  O5  1  0.327076  0.864964  0.795693  1
  O  O6  1  0.827087  0.364944  0.795766  1
  O  O7  1  0.673038  0.864945  0.204550  1
  O  O8  1  0.173031  0.364963  0.204463  1
  O  O9  1  0.740432  0.999843  0.122068  1
  O  O10  1  0.240428  0.499864  0.122006  1
  O  O11  1  0.259685  0.999865  0.878168  1
  O  O12  1  0.759688  0.499841  0.878229  1
  O  O13  1  0.782910  0.191583  0.175433  1
  O  O14  1  0.282902  0.691600  0.175368  1
  O  O15  1  0.217211  0.191604  0.824800  1
  O  O16  1  0.717210  0.691579  0.824871  1
  O  O17  1  0.217208  0.808125  0.824811  1
  O  O18  1  0.717213  0.308105  0.824872  1
  O  O19  1  0.782905  0.808103  0.175428  1
  O  O20  1  0.282907  0.308126  0.175361  1
  O  O21  1  0.689501  0.147748  0.948123  1
  O  O22  1  0.189497  0.647764  0.948055  1
  O  O23  1  0.310620  0.147771  0.052108  1
  O  O24  1  0.810615  0.647742  0.052185  1
  O  O25  1  0.310615  0.851959  0.052121  1
  O  O26  1  0.810618  0.351943  0.052186  1
  O  O27  1  0.689497  0.851938  0.948119  1
  O  O28  1  0.189502  0.351965  0.948045  1
  O  O29  1  0.826956  0.207049  0.643058  1
  O  O30  1  0.326941  0.707072  0.642967  1
  O  O31  1  0.173164  0.207070  0.357173  1
  O  O32  1  0.673172  0.707051  0.357273  1
  O  O33  1  0.173162  0.792661  0.357184  1
  O  O34  1  0.673175  0.292635  0.357276  1
  O  O35  1  0.826951  0.792639  0.643057  1
  O  O36  1  0.326944  0.292657  0.642953  1
  O  O37  1  0.739353  0.136421  0.740970  1
  O  O38  1  0.239348  0.636440  0.740895  1
  O  O39  1  0.260767  0.136441  0.259260  1
  O  O40  1  0.760766  0.636419  0.259346  1
  O  O41  1  0.260765  0.863285  0.259274  1
  O  O42  1  0.760768  0.363267  0.259348  1
  O  O43  1  0.739348  0.863265  0.740967  1
  O  O44  1  0.239351  0.363287  0.740882  1
  O  O45  1  0.799114  0.999842  0.639609  1
  O  O46  1  0.299104  0.499866  0.639504  1
  O  O47  1  0.201003  0.999866  0.360627  1
  O  O48  1  0.701011  0.499842  0.360731  1
  O  O49  1  0.723716  0.129612  0.473343  1
  O  O50  1  0.223698  0.629638  0.473261  1
  O  O51  1  0.276404  0.129634  0.526887  1
  O  O52  1  0.776415  0.629615  0.526981  1
  O  O53  1  0.276402  0.870098  0.526902  1
  O  O54  1  0.776418  0.370072  0.526983  1
  O  O55  1  0.723712  0.870075  0.473339  1
  O  O56  1  0.223701  0.370094  0.473247  1
  O  O57  1  0.602498  0.858464  0.404640  1
  O  O58  1  0.102487  0.358477  0.404559  1
  O  O59  1  0.397616  0.858483  0.595600  1
  O  O60  1  0.897631  0.358459  0.595672  1
  O  O61  1  0.397618  0.141240  0.595587  1
  O  O62  1  0.897628  0.641234  0.595672  1
  O  O63  1  0.602502  0.141220  0.404643  1
  O  O64  1  0.102485  0.641253  0.404569  1
  O  O65  1  0.620500  0.177282  0.673962  1
  O  O66  1  0.120498  0.677301  0.673899  1
  O  O67  1  0.379620  0.177299  0.326268  1
  O  O68  1  0.879615  0.677285  0.326342  1
  O  O69  1  0.379616  0.822417  0.326280  1
  O  O70  1  0.879618  0.322409  0.326343  1
  O  O71  1  0.620497  0.822402  0.673959  1
  O  O72  1  0.120502  0.322424  0.673889  1
  O  O73  1  0.500060  0.142654  0.500115  1
  O  O74  1  0.000056  0.642655  0.500121  1
  O  O75  1  0.500056  0.857046  0.500119  1
  O  O76  1  0.000060  0.357056  0.500117  1
  O  O77  1  0.584363  0.999844  0.566745  1
  O  O78  1  0.084366  0.499862  0.566672  1
  O  O79  1  0.415753  0.999857  0.433490  1
  O  O80  1  0.915751  0.499849  0.433564  1
  Si  Si81  1  0.721920  0.116827  0.112436  1
  Si  Si82  1  0.221911  0.616846  0.112368  1
  Si  Si83  1  0.278201  0.116847  0.887798  1
  Si  Si84  1  0.778201  0.616825  0.887870  1
  Si  Si85  1  0.278198  0.882881  0.887809  1
  Si  Si86  1  0.778204  0.382859  0.887873  1
  Si  Si87  1  0.721915  0.882860  0.112431  1
  Si  Si88  1  0.221916  0.382879  0.112360  1
  Si  Si89  1  0.776854  0.115875  0.627315  1
  Si  Si90  1  0.276841  0.615896  0.627225  1
  Si  Si91  1  0.223266  0.115896  0.372914  1
  Si  Si92  1  0.723272  0.615875  0.373016  1
  Si  Si93  1  0.223264  0.883834  0.372928  1
  Si  Si94  1  0.723275  0.383811  0.373017  1
  Si  Si95  1  0.776850  0.883811  0.627313  1
  Si  Si96  1  0.276844  0.383834  0.627213  1
  Si  Si97  1  0.662127  0.826835  0.350235  1
  Si  Si98  1  0.162116  0.326853  0.350145  1
  Si  Si99  1  0.337987  0.826856  0.650006  1
  Si  Si100  1  0.838003  0.326832  0.650086  1
  Si  Si101  1  0.337989  0.172873  0.649992  1
  Si  Si102  1  0.837999  0.672856  0.650086  1
  Si  Si103  1  0.662131  0.172851  0.350238  1
  Si  Si104  1  0.162114  0.672878  0.350155  1
  Si  Si105  1  0.575309  0.117454  0.536135  1
  Si  Si106  1  0.075304  0.617473  0.536078  1
  Si  Si107  1  0.424809  0.117468  0.464093  1
  Si  Si108  1  0.924810  0.617459  0.464164  1
  Si  Si109  1  0.424808  0.882247  0.464104  1
  Si  Si110  1  0.924812  0.382239  0.464163  1
  Si  Si111  1  0.575307  0.882234  0.536135  1
  Si  Si112  1  0.075306  0.382252  0.536069  1
  Si  Si113  1  0.688308  0.804061  0.798102  1
  Si  Si114  1  0.188313  0.304087  0.798029  1
  Si  Si115  1  0.311804  0.804081  0.202137  1
  Si  Si116  1  0.811807  0.304067  0.202204  1
  Si  Si117  1  0.311809  0.195644  0.202127  1
  Si  Si118  1  0.811804  0.695620  0.202200  1
  Si  Si119  1  0.688312  0.195623  0.798105  1
  Si  Si120  1  0.188309  0.695641  0.798039  1
