# generated using pymatgen
data_SiO2
_symmetry_space_group_name_H-M   'P 1'
_cell_length_a   19.36905923
_cell_length_b   7.65737943
_cell_length_c   8.96913389
_cell_angle_alpha   90.00000000
_cell_angle_beta   90.00000000
_cell_angle_gamma   90.00000000
_symmetry_Int_Tables_number   1
_chemical_formula_structural   SiO2
_chemical_formula_sum   'Si24 O48'
_cell_volume   1330.2681769
_cell_formula_units_Z   24
loop_
 _symmetry_equiv_pos_site_id
 _symmetry_equiv_pos_as_xyz
  1  'x, y, z'
loop_
 _atom_site_type_symbol
 _atom_site_label
 _atom_site_symmetry_multiplicity
 _atom_site_fract_x
 _atom_site_fract_y
 _atom_site_fract_z
 _atom_site_occupancy
  O  O1  1  0.976683  0.228496  0.313361  1
  O  O2  1  0.523370  0.770877  0.314105  1
  O  O3  1  0.023777  0.228850  0.685980  1
  O  O4  1  0.476425  0.770797  0.686880  1
  O  O5  1  0.023794  0.770762  0.686040  1
  O  O6  1  0.476284  0.228762  0.686675  1
  O  O7  1  0.976678  0.770907  0.313422  1
  O  O8  1  0.523517  0.228637  0.314253  1
  O  O9  1  0.065578  0.999693  0.249851  1
  O  O10  1  0.434594  0.999800  0.250733  1
  O  O11  1  0.934951  0.999805  0.749265  1
  O  O12  1  0.565184  0.999828  0.750109  1
  O  O13  1  0.090576  0.233271  0.446722  1
  O  O14  1  0.409537  0.766410  0.447865  1
  O  O15  1  0.909876  0.233410  0.552472  1
  O  O16  1  0.590259  0.766355  0.553060  1
  O  O17  1  0.909885  0.766102  0.552553  1
  O  O18  1  0.590248  0.233580  0.553601  1
  O  O19  1  0.090580  0.766218  0.446769  1
  O  O20  1  0.409552  0.233540  0.447277  1
  O  O21  1  0.080752  0.333219  0.166608  1
  O  O22  1  0.418937  0.665938  0.168193  1
  O  O23  1  0.919767  0.333249  0.832636  1
  O  O24  1  0.580881  0.666017  0.832720  1
  O  O25  1  0.919814  0.666394  0.832752  1
  O  O26  1  0.579877  0.332932  0.834217  1
  O  O27  1  0.080728  0.666176  0.166643  1
  O  O28  1  0.419938  0.332948  0.166654  1
  O  O29  1  0.148145  0.334186  0.697002  1
  O  O30  1  0.352014  0.665541  0.698171  1
  O  O31  1  0.852386  0.334039  0.301901  1
  O  O32  1  0.647751  0.665520  0.302676  1
  O  O33  1  0.852387  0.665366  0.301999  1
  O  O34  1  0.647788  0.334204  0.303052  1
  O  O35  1  0.148159  0.665427  0.697062  1
  O  O36  1  0.351989  0.334291  0.697742  1
  O  O37  1  0.115250  0.999802  0.643319  1
  O  O38  1  0.384833  0.999887  0.644053  1
  O  O39  1  0.885141  0.999711  0.356172  1
  O  O40  1  0.614984  0.999844  0.356934  1
  O  O41  1  0.999144  0.499620  0.002817  1
  O  O42  1  0.500388  0.503855  0.001731  1
  O  O43  1  0.128699  0.499748  0.937127  1
  O  O44  1  0.370850  0.499612  0.938515  1
  O  O45  1  0.869654  0.499779  0.060249  1
  O  O46  1  0.629905  0.499588  0.061606  1
  O  O47  1  0.749977  0.499736  0.187749  1
  O  O48  1  0.249972  0.499737  0.813974  1
  Si  Si49  1  0.056473  0.199883  0.289222  1
  Si  Si50  1  0.443553  0.799605  0.290280  1
  Si  Si51  1  0.943998  0.200045  0.709978  1
  Si  Si52  1  0.556240  0.799603  0.710639  1
  Si  Si53  1  0.944016  0.799553  0.710039  1
  Si  Si54  1  0.556019  0.200063  0.711006  1
  Si  Si55  1  0.056466  0.799516  0.289264  1
  Si  Si56  1  0.443777  0.200014  0.289874  1
  Si  Si57  1  0.098218  0.200279  0.619878  1
  Si  Si58  1  0.401937  0.799399  0.620986  1
  Si  Si59  1  0.902224  0.200210  0.379340  1
  Si  Si60  1  0.597863  0.799367  0.379946  1
  Si  Si61  1  0.902223  0.799221  0.379409  1
  Si  Si62  1  0.597944  0.200338  0.380436  1
  Si  Si63  1  0.098232  0.799313  0.619912  1
  Si  Si64  1  0.401858  0.200381  0.620456  1
  Si  Si65  1  0.074281  0.499713  0.064908  1
  Si  Si66  1  0.425611  0.500094  0.065704  1
  Si  Si67  1  0.925217  0.499772  0.934396  1
  Si  Si68  1  0.574673  0.500102  0.935182  1
  Si  Si69  1  0.670338  0.499741  0.211982  1
  Si  Si70  1  0.829669  0.499740  0.211243  1
  Si  Si71  1  0.329643  0.499769  0.789148  1
  Si  Si72  1  0.170358  0.499778  0.788400  1
