# generated using pymatgen
data_SiO2
_symmetry_space_group_name_H-M   'P 1'
_cell_length_a   12.62024903
_cell_length_b   21.88992159
_cell_length_c   39.14737771
_cell_angle_alpha   90.00000000
_cell_angle_beta   90.00000000
_cell_angle_gamma   90.00000000
_symmetry_Int_Tables_number   1
_chemical_formula_structural   SiO2
_chemical_formula_sum   'Si176 O352'
_cell_volume   10814.7082201
_cell_formula_units_Z   176
loop_
 _symmetry_equiv_pos_site_id
 _symmetry_equiv_pos_as_xyz
  1  'x, y, z'
loop_
 _atom_site_type_symbol
 _atom_site_label
 _atom_site_symmetry_multiplicity
 _atom_site_fract_x
 _atom_site_fract_y
 _atom_site_fract_z
 _atom_site_occupancy
  Si  Si1  1  0.877423  0.232017  0.280734  1
  Si  Si2  1  0.122695  0.232011  0.280731  1
  Si  Si3  1  0.122824  0.265544  0.023912  1
  Si  Si4  1  0.877335  0.265533  0.023907  1
  Si  Si5  1  0.812127  0.365995  0.294345  1
  Si  Si6  1  0.187975  0.365997  0.294327  1
  Si  Si7  1  0.876991  0.232186  0.201845  1
  Si  Si8  1  0.123128  0.232179  0.201843  1
  Si  Si9  1  0.190463  0.134655  0.003757  1
  Si  Si10  1  0.809674  0.134649  0.003745  1
  Si  Si11  1  0.123205  0.263481  0.102526  1
  Si  Si12  1  0.876921  0.263462  0.102521  1
  Si  Si13  1  0.621636  0.429752  0.260563  1
  Si  Si14  1  0.378493  0.429758  0.260559  1
  Si  Si15  1  0.809604  0.346916  0.161522  1
  Si  Si16  1  0.190509  0.346925  0.161534  1
  Si  Si17  1  0.811084  0.148479  0.142197  1
  Si  Si18  1  0.189060  0.148489  0.142190  1
  Si  Si19  1  0.378379  0.070274  0.039050  1
  Si  Si20  1  0.621761  0.070286  0.039048  1
  Si  Si21  1  0.622044  0.429655  0.181601  1
  Si  Si22  1  0.378098  0.429661  0.181597  1
  Si  Si23  1  0.622165  0.070426  0.117887  1
  Si  Si24  1  0.377974  0.070419  0.117888  1
  Si  Si25  1  0.000037  0.429706  0.257818  1
  Si  Si26  1  0.000061  0.070463  0.038852  1
  Si  Si27  1  0.000042  0.429499  0.178809  1
  Si  Si28  1  0.000070  0.070667  0.117819  1
  O  O29  1  0.831664  0.181872  0.305580  1
  O  O30  1  0.168457  0.181869  0.305577  1
  O  O31  1  0.168987  0.317787  0.000617  1
  O  O32  1  0.831179  0.317780  0.000615  1
  O  O33  1  0.831034  0.295660  0.291226  1
  O  O34  1  0.169093  0.295659  0.291212  1
  O  O35  1  0.858188  0.222266  0.241314  1
  O  O36  1  0.141921  0.222248  0.241311  1
  O  O37  1  0.000060  0.235196  0.286276  1
  O  O38  1  0.140526  0.274183  0.063280  1
  O  O39  1  0.859606  0.274157  0.063275  1
  O  O40  1  0.000081  0.261172  0.017703  1
  O  O41  1  0.172904  0.203106  0.013337  1
  O  O42  1  0.827270  0.203097  0.013323  1
  O  O43  1  0.898949  0.398648  0.272506  1
  O  O44  1  0.101140  0.398636  0.272487  1
  O  O45  1  0.701840  0.387795  0.280331  1
  O  O46  1  0.298259  0.387806  0.280316  1
  O  O47  1  0.829151  0.295055  0.189027  1
  O  O48  1  0.170972  0.295051  0.189031  1
  O  O49  1  0.831935  0.179782  0.178018  1
  O  O50  1  0.168187  0.179778  0.178014  1
  O  O51  1  0.000059  0.235679  0.196331  1
  O  O52  1  0.299507  0.110056  0.017312  1
  O  O53  1  0.700624  0.110070  0.017307  1
  O  O54  1  0.101092  0.098034  0.022138  1
  O  O55  1  0.899034  0.098013  0.022123  1
  O  O56  1  0.171384  0.200908  0.115077  1
  O  O57  1  0.828768  0.200887  0.115078  1
  O  O58  1  0.000063  0.260614  0.108623  1
  O  O59  1  0.171508  0.314852  0.126029  1
  O  O60  1  0.828581  0.314829  0.126019  1
  O  O61  1  0.500063  0.417661  0.267532  1
  O  O62  1  0.638771  0.422077  0.221124  1
  O  O63  1  0.361371  0.422087  0.221119  1
  O  O64  1  0.000035  0.082847  0.078270  1
  O  O65  1  0.999994  0.421930  0.218385  1
  O  O66  1  0.700754  0.382189  0.164797  1
  O  O67  1  0.299374  0.382193  0.164797  1
  O  O68  1  0.898979  0.395922  0.165742  1
  O  O69  1  0.101146  0.395929  0.165767  1
  O  O70  1  0.701266  0.114764  0.137151  1
  O  O71  1  0.298871  0.114763  0.137148  1
  O  O72  1  0.899780  0.100547  0.134133  1
  O  O73  1  0.100364  0.100564  0.134119  1
  O  O74  1  0.173633  0.389876  0.331874  1
  O  O75  1  0.640596  0.000013  0.032548  1
  O  O76  1  0.500068  0.082404  0.032514  1
  O  O77  1  0.359297  0.079469  0.078441  1
  O  O78  1  0.640842  0.079483  0.078439  1
  O  O79  1  0.357263  0.000004  0.124634  1
  O  O80  1  0.826461  0.389882  0.331891  1
  O  O81  1  0.500071  0.418155  0.174847  1
  O  O82  1  0.500069  0.082125  0.124337  1
  O  O83  1  0.642904  0.000013  0.124630  1
  O  O84  1  0.000105  0.000004  0.123162  1
  O  O85  1  0.000057  0.499999  0.171202  1
  O  O86  1  0.644219  0.499997  0.174305  1
  Si  Si87  1  0.811505  0.150590  0.341291  1
  Si  Si88  1  0.188608  0.150579  0.341287  1
  Si  Si89  1  0.810373  0.146787  0.466291  1
  Si  Si90  1  0.189737  0.146776  0.466290  1
  Si  Si91  1  0.622041  0.070351  0.362555  1
  Si  Si92  1  0.378064  0.070333  0.362552  1
  Si  Si93  1  0.876306  0.226231  0.404534  1
  Si  Si94  1  0.123833  0.226223  0.404531  1
  Si  Si95  1  0.621560  0.070260  0.441584  1
  Si  Si96  1  0.378536  0.070236  0.441582  1
  Si  Si97  1  0.877347  0.234417  0.523914  1
  Si  Si98  1  0.122836  0.234431  0.523909  1
  Si  Si99  1  0.877329  0.360167  0.428252  1
  Si  Si100  1  0.122851  0.360162  0.428245  1
  Si  Si101  1  0.809703  0.365308  0.503766  1
  Si  Si102  1  0.190504  0.365317  0.503755  1
  Si  Si103  1  0.876976  0.236504  0.602528  1
  Si  Si104  1  0.123259  0.236516  0.602524  1
  Si  Si105  1  0.876617  0.430209  0.360853  1
  Si  Si106  1  0.123506  0.430198  0.360843  1
  Si  Si107  1  0.190560  0.153048  0.661521  1
  Si  Si108  1  0.809662  0.153048  0.661529  1
  Si  Si109  1  0.189111  0.351496  0.642199  1
  Si  Si110  1  0.811120  0.351494  0.642195  1
  Si  Si111  1  0.621794  0.429701  0.539054  1
  Si  Si112  1  0.378413  0.429696  0.539053  1
  Si  Si113  1  0.378018  0.429564  0.617891  1
  Si  Si114  1  0.622209  0.429567  0.617893  1
  Si  Si115  1  0.000051  0.070170  0.362976  1
  Si  Si116  1  0.000045  0.069704  0.442817  1
  Si  Si117  1  0.000109  0.429497  0.538861  1
  Si  Si118  1  0.000119  0.429310  0.617827  1
  O  O119  1  0.899359  0.101627  0.348087  1
  O  O120  1  0.100732  0.101632  0.348082  1
  O  O121  1  0.702214  0.115815  0.344763  1
  O  O122  1  0.297884  0.115789  0.344759  1
  O  O123  1  0.828624  0.199757  0.370377  1
  O  O124  1  0.171506  0.199748  0.370373  1
  O  O125  1  0.700894  0.113249  0.461437  1
  O  O126  1  0.299187  0.113210  0.461437  1
  O  O127  1  0.899367  0.098479  0.459543  1
  O  O128  1  0.100693  0.098496  0.459552  1
  O  O129  1  0.831177  0.182165  0.500627  1
  O  O130  1  0.168990  0.182174  0.500623  1
  O  O131  1  0.828218  0.191910  0.435882  1
  O  O132  1  0.171921  0.191895  0.435877  1
  O  O133  1  0.000107  0.499975  0.623162  1
  O  O134  1  0.643437  0.000014  0.355452  1
  O  O135  1  0.500051  0.081941  0.355797  1
  O  O136  1  0.639403  0.078234  0.402074  1
  O  O137  1  0.360688  0.078211  0.402072  1
  O  O138  1  0.855536  0.295445  0.412199  1
  O  O139  1  0.144626  0.295435  0.412196  1
  O  O140  1  0.000069  0.218602  0.403918  1
  O  O141  1  0.500044  0.082464  0.448264  1
  O  O142  1  0.000136  0.417124  0.578279  1
  O  O143  1  0.000057  0.077596  0.402863  1
  O  O144  1  0.859652  0.225795  0.563283  1
  O  O145  1  0.140562  0.225815  0.563277  1
  O  O146  1  0.000090  0.238792  0.517703  1
  O  O147  1  0.827257  0.296851  0.513335  1
  O  O148  1  0.172917  0.296864  0.513325  1
  O  O149  1  0.855275  0.406709  0.398363  1
  O  O150  1  0.144883  0.406693  0.398349  1
  O  O151  1  0.000092  0.361985  0.435136  1
  O  O152  1  0.822426  0.371274  0.463864  1
  O  O153  1  0.177779  0.371279  0.463853  1
  O  O154  1  0.000080  0.499962  0.533281  1
  O  O155  1  0.640613  0.499975  0.532549  1
  O  O156  1  0.700660  0.389908  0.517320  1
  O  O157  1  0.299550  0.389905  0.517315  1
  O  O158  1  0.899077  0.401918  0.522151  1
  O  O159  1  0.101138  0.401941  0.522137  1
  O  O160  1  0.828796  0.299078  0.615080  1
  O  O161  1  0.171428  0.299089  0.615078  1
  O  O162  1  0.000118  0.239373  0.608626  1
  O  O163  1  0.828670  0.185128  0.626027  1
  O  O164  1  0.171585  0.185141  0.626020  1
  O  O165  1  0.000059  0.424344  0.355976  1
  O  O166  1  0.149999  0.499981  0.357283  1
  O  O167  1  0.299416  0.117777  0.664795  1
  O  O168  1  0.700791  0.117786  0.664791  1
  O  O169  1  0.101181  0.104047  0.665738  1
  O  O170  1  0.899023  0.104041  0.665761  1
  O  O171  1  0.298920  0.385222  0.637155  1
  O  O172  1  0.701312  0.385223  0.637153  1
  O  O173  1  0.100408  0.399425  0.634139  1
  O  O174  1  0.899822  0.399420  0.634130  1
  O  O175  1  0.359587  0.499969  0.532549  1
  O  O176  1  0.500105  0.417575  0.532519  1
  O  O177  1  0.640879  0.420513  0.578445  1
  O  O178  1  0.359337  0.420506  0.578445  1
  O  O179  1  0.500114  0.417865  0.624342  1
  O  O180  1  0.357289  0.499978  0.624632  1
  O  O181  1  0.642930  0.499982  0.624633  1
  O  O182  1  0.850142  0.499994  0.357288  1
  Si  Si183  1  0.188667  0.349391  0.841282  1
  Si  Si184  1  0.811538  0.349403  0.841277  1
  Si  Si185  1  0.189775  0.353158  0.966278  1
  Si  Si186  1  0.810430  0.353165  0.966278  1
  Si  Si187  1  0.378124  0.429632  0.862546  1
  Si  Si188  1  0.622100  0.429661  0.862545  1
  Si  Si189  1  0.123843  0.273728  0.904514  1
  Si  Si190  1  0.876315  0.273733  0.904511  1
  Si  Si191  1  0.122753  0.267950  0.780731  1
  Si  Si192  1  0.877481  0.267958  0.780730  1
  Si  Si193  1  0.378605  0.429675  0.941575  1
  Si  Si194  1  0.621628  0.429708  0.941574  1
  Si  Si195  1  0.122832  0.139799  0.928242  1
  Si  Si196  1  0.877312  0.139799  0.928233  1
  Si  Si197  1  0.188054  0.133971  0.794343  1
  Si  Si198  1  0.812215  0.133971  0.794328  1
  Si  Si199  1  0.123183  0.267782  0.701842  1
  Si  Si200  1  0.877044  0.267788  0.701842  1
  Si  Si201  1  0.123558  0.069744  0.860848  1
  Si  Si202  1  0.876671  0.069744  0.860838  1
  Si  Si203  1  0.378558  0.070222  0.760564  1
  Si  Si204  1  0.621701  0.070222  0.760553  1
  Si  Si205  1  0.378129  0.070314  0.681601  1
  Si  Si206  1  0.622074  0.070316  0.681591  1
  Si  Si207  1  0.000108  0.429800  0.862968  1
  Si  Si208  1  0.000111  0.430250  0.942809  1
  Si  Si209  1  0.000148  0.070263  0.757815  1
  Si  Si210  1  0.000118  0.070467  0.678805  1
  O  O211  1  0.168516  0.318101  0.805572  1
  O  O212  1  0.831699  0.318106  0.805570  1
  O  O213  1  0.100802  0.398348  0.848076  1
  O  O214  1  0.899429  0.398340  0.848073  1
  O  O215  1  0.297952  0.384174  0.844750  1
  O  O216  1  0.702277  0.384210  0.844744  1
  O  O217  1  0.171559  0.300220  0.870367  1
  O  O218  1  0.828611  0.300230  0.870364  1
  O  O219  1  0.299267  0.386679  0.961421  1
  O  O220  1  0.700975  0.386724  0.961422  1
  O  O221  1  0.100792  0.401474  0.959533  1
  O  O222  1  0.899462  0.401451  0.959540  1
  O  O223  1  0.171897  0.308034  0.935872  1
  O  O224  1  0.828261  0.308044  0.935868  1
  O  O225  1  0.356723  0.499973  0.855457  1
  O  O226  1  0.500116  0.418053  0.855786  1
  O  O227  1  0.360762  0.421725  0.902064  1
  O  O228  1  0.639476  0.421759  0.902063  1
  O  O229  1  0.144617  0.204513  0.912178  1
  O  O230  1  0.855532  0.204518  0.912172  1
  O  O231  1  0.000080  0.281352  0.903886  1
  O  O232  1  0.169136  0.204306  0.791228  1
  O  O233  1  0.831108  0.204310  0.791221  1
  O  O234  1  0.141988  0.277697  0.741311  1
  O  O235  1  0.858247  0.277710  0.741310  1
  O  O236  1  0.000117  0.264783  0.786275  1
  O  O237  1  0.500122  0.417471  0.948254  1
  O  O238  1  0.144886  0.093247  0.898358  1
  O  O239  1  0.855295  0.093251  0.898344  1
  O  O240  1  0.000069  0.137985  0.935127  1
  O  O241  1  0.177743  0.128704  0.963855  1
  O  O242  1  0.822382  0.128696  0.963842  1
  O  O243  1  0.173713  0.110074  0.831887  1
  O  O244  1  0.826539  0.110069  0.831871  1
  O  O245  1  0.101240  0.101322  0.772499  1
  O  O246  1  0.899049  0.101336  0.772486  1
  O  O247  1  0.298346  0.112176  0.780330  1
  O  O248  1  0.701930  0.112178  0.780311  1
  O  O249  1  0.171011  0.204911  0.689025  1
  O  O250  1  0.829201  0.204917  0.689029  1
  O  O251  1  0.168254  0.320188  0.678019  1
  O  O252  1  0.831981  0.320194  0.678016  1
  O  O253  1  0.000113  0.264295  0.696329  1
  O  O254  1  0.000117  0.075601  0.855969  1
  O  O255  1  0.000173  0.078036  0.718381  1
  O  O256  1  0.000106  0.422366  0.902854  1
  O  O257  1  0.500132  0.082319  0.767526  1
  O  O258  1  0.361405  0.077894  0.721125  1
  O  O259  1  0.638817  0.077889  0.721113  1
  O  O260  1  0.000080  0.499979  0.855591  1
  O  O261  1  0.500098  0.081815  0.674838  1
  O  O262  1  0.358400  0.499945  0.948537  1
  O  O263  1  0.641770  0.499984  0.948535  1
  O  O264  1  0.000071  0.499974  0.949643  1
  Si  Si265  1  0.122719  0.767980  0.280725  1
  Si  Si266  1  0.877446  0.767988  0.280723  1
  Si  Si267  1  0.877340  0.734450  0.023906  1
  Si  Si268  1  0.122827  0.734447  0.023906  1
  Si  Si269  1  0.188007  0.634000  0.294336  1
  Si  Si270  1  0.812163  0.634007  0.294335  1
  Si  Si271  1  0.123163  0.767813  0.201837  1
  Si  Si272  1  0.877024  0.767822  0.201835  1
  Si  Si273  1  0.809703  0.865343  0.003759  1
  Si  Si274  1  0.190506  0.865333  0.003757  1
  Si  Si275  1  0.876947  0.736539  0.102520  1
  Si  Si276  1  0.123229  0.736535  0.102520  1
  Si  Si277  1  0.378516  0.570258  0.260556  1
  Si  Si278  1  0.621657  0.570252  0.260558  1
  Si  Si279  1  0.190540  0.653075  0.161519  1
  Si  Si280  1  0.809639  0.653083  0.161521  1
  Si  Si281  1  0.189098  0.851518  0.142191  1
  Si  Si282  1  0.811109  0.851529  0.142188  1
  Si  Si283  1  0.621791  0.929737  0.039048  1
  Si  Si284  1  0.378409  0.929726  0.039050  1
  Si  Si285  1  0.378122  0.570349  0.181594  1
  Si  Si286  1  0.622067  0.570344  0.181596  1
  Si  Si287  1  0.378003  0.929591  0.117889  1
  Si  Si288  1  0.622194  0.929598  0.117887  1
  Si  Si289  1  0.000083  0.570300  0.257814  1
  Si  Si290  1  0.000111  0.929530  0.038855  1
  Si  Si291  1  0.000088  0.570500  0.178804  1
  Si  Si292  1  0.000114  0.929341  0.117821  1
  O  O293  1  0.168482  0.818131  0.305566  1
  O  O294  1  0.831689  0.818136  0.305566  1
  O  O295  1  0.831169  0.682193  0.000622  1
  O  O296  1  0.168990  0.682189  0.000621  1
  O  O297  1  0.169096  0.704336  0.291224  1
  O  O298  1  0.831054  0.704345  0.291218  1
  O  O299  1  0.141963  0.777729  0.241305  1
  O  O300  1  0.858218  0.777742  0.241303  1
  O  O301  1  0.000082  0.764807  0.286267  1
  O  O302  1  0.859638  0.725828  0.063274  1
  O  O303  1  0.140532  0.725824  0.063274  1
  O  O304  1  0.000084  0.738817  0.017694  1
  O  O305  1  0.827254  0.796887  0.013331  1
  O  O306  1  0.172920  0.796883  0.013333  1
  O  O307  1  0.101185  0.601356  0.272492  1
  O  O308  1  0.898993  0.601372  0.272490  1
  O  O309  1  0.298297  0.612213  0.280319  1
  O  O310  1  0.701879  0.612205  0.280321  1
  O  O311  1  0.170995  0.704941  0.189021  1
  O  O312  1  0.829180  0.704952  0.189021  1
  O  O313  1  0.168238  0.820216  0.178012  1
  O  O314  1  0.831968  0.820228  0.178009  1
  O  O315  1  0.000094  0.764327  0.196323  1
  O  O316  1  0.700662  0.889951  0.017312  1
  O  O317  1  0.299549  0.889930  0.017315  1
  O  O318  1  0.899077  0.901957  0.022142  1
  O  O319  1  0.101136  0.901968  0.022130  1
  O  O320  1  0.828780  0.799115  0.115071  1
  O  O321  1  0.171409  0.799108  0.115072  1
  O  O322  1  0.000088  0.739399  0.108621  1
  O  O323  1  0.828621  0.685169  0.126019  1
  O  O324  1  0.171542  0.685157  0.126019  1
  O  O325  1  0.500087  0.582351  0.267526  1
  O  O326  1  0.361388  0.577929  0.221117  1
  O  O327  1  0.638793  0.577922  0.221119  1
  O  O328  1  0.299411  0.617816  0.164788  1
  O  O329  1  0.700783  0.617810  0.164793  1
  O  O330  1  0.101182  0.604068  0.165746  1
  O  O331  1  0.899024  0.604086  0.165746  1
  O  O332  1  0.298909  0.885242  0.137148  1
  O  O333  1  0.701301  0.885258  0.137147  1
  O  O334  1  0.100400  0.899450  0.134131  1
  O  O335  1  0.899813  0.899453  0.134123  1
  O  O336  1  0.500101  0.917609  0.032514  1
  O  O337  1  0.640872  0.920546  0.078439  1
  O  O338  1  0.359331  0.920536  0.078442  1
  O  O339  1  0.500096  0.581849  0.174841  1
  O  O340  1  0.500100  0.917894  0.124337  1
  O  O341  1  0.000132  0.917156  0.078273  1
  O  O342  1  0.000090  0.578073  0.218380  1
  O  O343  1  0.358678  0.500009  0.267786  1
  O  O344  1  0.826502  0.610110  0.331878  1
  O  O345  1  0.359572  0.999999  0.032549  1
  O  O346  1  0.173677  0.610096  0.331878  1
  O  O347  1  0.000092  0.999996  0.033282  1
  O  O348  1  0.355944  0.500006  0.174301  1
  O  O349  1  0.641469  0.500002  0.267791  1
  O  O350  1  0.000062  0.500003  0.265707  1
  Si  Si351  1  0.188650  0.849413  0.341276  1
  Si  Si352  1  0.811531  0.849419  0.341278  1
  Si  Si353  1  0.189775  0.853158  0.466278  1
  Si  Si354  1  0.810417  0.853170  0.466280  1
  Si  Si355  1  0.378109  0.929651  0.362541  1
  Si  Si356  1  0.622085  0.929670  0.362543  1
  Si  Si357  1  0.123848  0.773743  0.404508  1
  Si  Si358  1  0.876319  0.773749  0.404510  1
  Si  Si359  1  0.378587  0.929686  0.441570  1
  Si  Si360  1  0.621612  0.929710  0.441572  1
  Si  Si361  1  0.122841  0.765516  0.523903  1
  Si  Si362  1  0.877353  0.765526  0.523904  1
  Si  Si363  1  0.122852  0.639814  0.428238  1
  Si  Si364  1  0.877331  0.639820  0.428240  1
  Si  Si365  1  0.190492  0.634626  0.503750  1
  Si  Si366  1  0.809700  0.634636  0.503753  1
  Si  Si367  1  0.123251  0.763446  0.602516  1
  Si  Si368  1  0.876968  0.763451  0.602518  1
  Si  Si369  1  0.123526  0.569767  0.360841  1
  Si  Si370  1  0.876639  0.569778  0.360842  1
  Si  Si371  1  0.809650  0.846890  0.661526  1
  Si  Si372  1  0.190561  0.846888  0.661524  1
  Si  Si373  1  0.811119  0.648459  0.642183  1
  Si  Si374  1  0.189090  0.648456  0.642185  1
  Si  Si375  1  0.378405  0.570245  0.539045  1
  Si  Si376  1  0.621788  0.570250  0.539045  1
  Si  Si377  1  0.622198  0.570395  0.617884  1
  Si  Si378  1  0.378008  0.570392  0.617884  1
  Si  Si379  1  0.000095  0.929817  0.362972  1
  Si  Si380  1  0.000103  0.930251  0.442814  1
  Si  Si381  1  0.000095  0.570430  0.538845  1
  Si  Si382  1  0.000104  0.570636  0.617812  1
  O  O383  1  0.100786  0.898367  0.348077  1
  O  O384  1  0.899413  0.898359  0.348079  1
  O  O385  1  0.297935  0.884196  0.344743  1
  O  O386  1  0.702262  0.884219  0.344744  1
  O  O387  1  0.171552  0.800237  0.370359  1
  O  O388  1  0.828613  0.800240  0.370361  1
  O  O389  1  0.299252  0.886693  0.461418  1
  O  O390  1  0.700958  0.886726  0.461423  1
  O  O391  1  0.100770  0.901466  0.459542  1
  O  O392  1  0.899444  0.901461  0.459544  1
  O  O393  1  0.169015  0.817759  0.500610  1
  O  O394  1  0.831176  0.817769  0.500612  1
  O  O395  1  0.171909  0.808051  0.435864  1
  O  O396  1  0.828259  0.808062  0.435865  1
  O  O397  1  0.500100  0.918066  0.355782  1
  O  O398  1  0.360746  0.921739  0.402058  1
  O  O399  1  0.639462  0.921765  0.402061  1
  O  O400  1  0.144634  0.704530  0.412174  1
  O  O401  1  0.855539  0.704537  0.412180  1
  O  O402  1  0.000084  0.781366  0.403884  1
  O  O403  1  0.500103  0.917479  0.448249  1
  O  O404  1  0.140553  0.774153  0.563270  1
  O  O405  1  0.859655  0.774162  0.563272  1
  O  O406  1  0.000096  0.761158  0.517693  1
  O  O407  1  0.172909  0.703072  0.513334  1
  O  O408  1  0.827276  0.703083  0.513336  1
  O  O409  1  0.144878  0.593267  0.398349  1
  O  O410  1  0.855294  0.593279  0.398350  1
  O  O411  1  0.000092  0.638005  0.435129  1
  O  O412  1  0.177782  0.628700  0.463845  1
  O  O413  1  0.822411  0.628704  0.463849  1
  O  O414  1  0.356713  0.999992  0.355450  1
  O  O415  1  0.641759  0.999985  0.448532  1
  O  O416  1  0.299536  0.610028  0.517306  1
  O  O417  1  0.700654  0.610037  0.517308  1
  O  O418  1  0.101123  0.597985  0.522119  1
  O  O419  1  0.899067  0.597999  0.522126  1
  O  O420  1  0.171412  0.700869  0.615068  1
  O  O421  1  0.828801  0.700874  0.615068  1
  O  O422  1  0.000110  0.760590  0.608619  1
  O  O423  1  0.171583  0.814809  0.626019  1
  O  O424  1  0.828645  0.814815  0.626020  1
  O  O425  1  0.000083  0.575630  0.355966  1
  O  O426  1  0.000071  0.999994  0.355592  1
  O  O427  1  0.700786  0.882156  0.664791  1
  O  O428  1  0.299418  0.882159  0.664798  1
  O  O429  1  0.899022  0.895893  0.665756  1
  O  O430  1  0.101184  0.895889  0.665747  1
  O  O431  1  0.701302  0.614741  0.637142  1
  O  O432  1  0.298904  0.614734  0.637144  1
  O  O433  1  0.899810  0.600528  0.634116  1
  O  O434  1  0.100395  0.600527  0.634118  1
  O  O435  1  0.358387  0.999957  0.448529  1
  O  O436  1  0.500096  0.582369  0.532509  1
  O  O437  1  0.359328  0.579441  0.578436  1
  O  O438  1  0.640869  0.579445  0.578437  1
  O  O439  1  0.500103  0.582096  0.624333  1
  O  O440  1  0.000103  0.922374  0.402859  1
  O  O441  1  0.000079  0.999977  0.449643  1
  O  O442  1  0.000109  0.582814  0.578263  1
  Si  Si443  1  0.811517  0.650573  0.841291  1
  Si  Si444  1  0.188619  0.650556  0.841288  1
  Si  Si445  1  0.810377  0.646790  0.966293  1
  Si  Si446  1  0.189743  0.646771  0.966295  1
  Si  Si447  1  0.622048  0.570343  0.862559  1
  Si  Si448  1  0.378071  0.570314  0.862561  1
  Si  Si449  1  0.876320  0.726220  0.904531  1
  Si  Si450  1  0.123850  0.726205  0.904530  1
  Si  Si451  1  0.877466  0.731976  0.780727  1
  Si  Si452  1  0.122738  0.731980  0.780726  1
  Si  Si453  1  0.621566  0.570259  0.941589  1
  Si  Si454  1  0.378542  0.570225  0.941590  1
  Si  Si455  1  0.877352  0.860157  0.928249  1
  Si  Si456  1  0.122875  0.860143  0.928246  1
  Si  Si457  1  0.812203  0.865962  0.794331  1
  Si  Si458  1  0.188053  0.865958  0.794335  1
  Si  Si459  1  0.877030  0.732148  0.701839  1
  Si  Si460  1  0.123168  0.732149  0.701838  1
  Si  Si461  1  0.876677  0.930175  0.860842  1
  Si  Si462  1  0.123566  0.930174  0.860844  1
  Si  Si463  1  0.621701  0.929723  0.760555  1
  Si  Si464  1  0.378558  0.929721  0.760565  1
  Si  Si465  1  0.622075  0.929628  0.681592  1
  Si  Si466  1  0.378130  0.929625  0.681603  1
  Si  Si467  1  0.000057  0.570154  0.862980  1
  Si  Si468  1  0.000049  0.569703  0.942822  1
  Si  Si469  1  0.000135  0.929669  0.757816  1
  Si  Si470  1  0.000109  0.929465  0.678807  1
  O  O471  1  0.831697  0.681841  0.805577  1
  O  O472  1  0.168487  0.681837  0.805574  1
  O  O473  1  0.899359  0.601607  0.848092  1
  O  O474  1  0.100733  0.601614  0.848083  1
  O  O475  1  0.702218  0.615806  0.844766  1
  O  O476  1  0.297890  0.615765  0.844764  1
  O  O477  1  0.828647  0.699749  0.870373  1
  O  O478  1  0.171514  0.699730  0.870372  1
  O  O479  1  0.700900  0.613248  0.961442  1
  O  O480  1  0.299191  0.613198  0.961446  1
  O  O481  1  0.899376  0.598482  0.959550  1
  O  O482  1  0.100697  0.598491  0.959559  1
  O  O483  1  0.828218  0.691897  0.935876  1
  O  O484  1  0.171941  0.691875  0.935875  1
  O  O485  1  0.643448  0.500006  0.855455  1
  O  O486  1  0.500055  0.581927  0.855803  1
  O  O487  1  0.639409  0.578231  0.902078  1
  O  O488  1  0.360691  0.578195  0.902080  1
  O  O489  1  0.855549  0.795432  0.912202  1
  O  O490  1  0.144650  0.795415  0.912199  1
  O  O491  1  0.000083  0.718589  0.903920  1
  O  O492  1  0.831079  0.795624  0.791213  1
  O  O493  1  0.169142  0.795623  0.791215  1
  O  O494  1  0.858233  0.722218  0.741307  1
  O  O495  1  0.141968  0.722221  0.741306  1
  O  O496  1  0.000102  0.735162  0.786270  1
  O  O497  1  0.500049  0.582458  0.948270  1
  O  O498  1  0.000131  0.921891  0.718382  1
  O  O499  1  0.000130  0.999966  0.765710  1
  O  O500  1  0.855318  0.906684  0.898352  1
  O  O501  1  0.144921  0.906672  0.898351  1
  O  O502  1  0.000114  0.861968  0.935135  1
  O  O503  1  0.822440  0.871292  0.963857  1
  O  O504  1  0.177796  0.871271  0.963854  1
  O  O505  1  0.826538  0.889845  0.831878  1
  O  O506  1  0.173708  0.889846  0.831880  1
  O  O507  1  0.899043  0.898601  0.772493  1
  O  O508  1  0.101235  0.898608  0.772493  1
  O  O509  1  0.701924  0.887770  0.780316  1
  O  O510  1  0.298345  0.887762  0.780327  1
  O  O511  1  0.829185  0.795019  0.689025  1
  O  O512  1  0.171011  0.795019  0.689024  1
  O  O513  1  0.831980  0.679748  0.678008  1
  O  O514  1  0.168224  0.679748  0.678008  1
  O  O515  1  0.000099  0.735647  0.696326  1
  O  O516  1  0.000122  0.924315  0.855971  1
  O  O517  1  0.500132  0.917627  0.767528  1
  O  O518  1  0.638816  0.922054  0.721115  1
  O  O519  1  0.361403  0.922049  0.721126  1
  O  O520  1  0.644241  0.999972  0.674296  1
  O  O521  1  0.500100  0.918126  0.674841  1
  O  O522  1  0.000067  0.577587  0.902867  1
  O  O523  1  0.150048  0.999960  0.857288  1
  O  O524  1  0.850192  0.999959  0.857279  1
  O  O525  1  0.000110  0.999965  0.671202  1
  O  O526  1  0.358738  0.999971  0.767795  1
  O  O527  1  0.641527  0.999973  0.767785  1
  O  O528  1  0.355961  0.999969  0.674310  1
