# generated using pymatgen
data_SiO2
_symmetry_space_group_name_H-M   'P 1'
_cell_length_a   8.54703563
_cell_length_b   8.52920369
_cell_length_c   27.82197427
_cell_angle_alpha   90.00000000
_cell_angle_beta   90.00000000
_cell_angle_gamma   90.00000000
_symmetry_Int_Tables_number   1
_chemical_formula_structural   SiO2
_chemical_formula_sum   'Si40 O80'
_cell_volume   2028.20544843
_cell_formula_units_Z   40
loop_
 _symmetry_equiv_pos_site_id
 _symmetry_equiv_pos_as_xyz
  1  'x, y, z'
loop_
 _atom_site_type_symbol
 _atom_site_label
 _atom_site_symmetry_multiplicity
 _atom_site_fract_x
 _atom_site_fract_y
 _atom_site_fract_z
 _atom_site_occupancy
  O  O1  1  0.130875  0.832377  0.033774  1
  O  O2  1  0.672042  0.131390  0.033798  1
  O  O3  1  0.373135  0.672397  0.033212  1
  O  O4  1  0.832182  0.373473  0.033149  1
  O  O5  1  0.872779  0.327100  0.533523  1
  O  O6  1  0.329021  0.626301  0.534527  1
  O  O7  1  0.626004  0.177722  0.534600  1
  O  O8  1  0.174487  0.871775  0.534390  1
  O  O9  1  0.874827  0.176353  0.966255  1
  O  O10  1  0.326616  0.875137  0.966110  1
  O  O11  1  0.627245  0.326877  0.965683  1
  O  O12  1  0.176096  0.627540  0.965881  1
  O  O13  1  0.123914  0.663818  0.468644  1
  O  O14  1  0.668946  0.372389  0.467428  1
  O  O15  1  0.369053  0.818152  0.466039  1
  O  O16  1  0.822523  0.127252  0.466773  1
  O  O17  1  0.929833  0.645191  0.064601  1
  O  O18  1  0.860501  0.929274  0.065233  1
  O  O19  1  0.576235  0.861393  0.064415  1
  O  O20  1  0.646054  0.578033  0.062832  1
  O  O21  1  0.075623  0.144580  0.564515  1
  O  O22  1  0.141355  0.427861  0.566032  1
  O  O23  1  0.423273  0.359000  0.567237  1
  O  O24  1  0.357453  0.076613  0.565484  1
  O  O25  1  0.076422  0.358640  0.933824  1
  O  O26  1  0.144898  0.076939  0.934585  1
  O  O27  1  0.426643  0.145109  0.933715  1
  O  O28  1  0.358125  0.426882  0.933065  1
  O  O29  1  0.926231  0.854851  0.436315  1
  O  O30  1  0.858136  0.570820  0.435189  1
  O  O31  1  0.575985  0.639906  0.434723  1
  O  O32  1  0.642332  0.922257  0.435945  1
  O  O33  1  0.053709  0.826440  0.124560  1
  O  O34  1  0.677136  0.053244  0.124396  1
  O  O35  1  0.456784  0.674643  0.123224  1
  O  O36  1  0.823281  0.455101  0.123477  1
  O  O37  1  0.952564  0.321478  0.624489  1
  O  O38  1  0.320898  0.552865  0.625543  1
  O  O39  1  0.547484  0.176310  0.625373  1
  O  O40  1  0.175648  0.956356  0.624565  1
  O  O41  1  0.954960  0.176340  0.875067  1
  O  O42  1  0.322709  0.955271  0.874817  1
  O  O43  1  0.548624  0.323658  0.874090  1
  O  O44  1  0.176028  0.549243  0.874341  1
  O  O45  1  0.051978  0.672375  0.376982  1
  O  O46  1  0.675312  0.445027  0.376280  1
  O  O47  1  0.453699  0.820925  0.375677  1
  O  O48  1  0.823166  0.043579  0.376478  1
  O  O49  1  0.363134  0.835936  0.286197  1
  O  O50  1  0.660157  0.358402  0.286740  1
  O  O51  1  0.133580  0.657620  0.286057  1
  O  O52  1  0.839776  0.129904  0.286302  1
  O  O53  1  0.631667  0.339359  0.784078  1
  O  O54  1  0.331709  0.862690  0.785494  1
  O  O55  1  0.862282  0.166191  0.785574  1
  O  O56  1  0.158503  0.632053  0.784139  1
  O  O57  1  0.630813  0.160263  0.715443  1
  O  O58  1  0.337685  0.632175  0.715471  1
  O  O59  1  0.861899  0.332799  0.713893  1
  O  O60  1  0.165015  0.863232  0.713920  1
  O  O61  1  0.367385  0.666319  0.213924  1
  O  O62  1  0.660622  0.131785  0.215925  1
  O  O63  1  0.133553  0.839936  0.216048  1
  O  O64  1  0.833256  0.366934  0.214583  1
  O  O65  1  0.926842  0.650146  0.184481  1
  O  O66  1  0.857815  0.933079  0.184316  1
  O  O67  1  0.578785  0.852452  0.183719  1
  O  O68  1  0.646107  0.569950  0.184998  1
  O  O69  1  0.072027  0.145978  0.685495  1
  O  O70  1  0.143807  0.427294  0.685281  1
  O  O71  1  0.425861  0.355425  0.685177  1
  O  O72  1  0.352177  0.074526  0.685416  1
  O  O73  1  0.072939  0.353446  0.814380  1
  O  O74  1  0.144987  0.073111  0.814014  1
  O  O75  1  0.426148  0.145422  0.813726  1
  O  O76  1  0.353475  0.427494  0.814008  1
  O  O77  1  0.928647  0.848580  0.316414  1
  O  O78  1  0.854854  0.565943  0.316452  1
  O  O79  1  0.572078  0.640147  0.315260  1
  O  O80  1  0.646872  0.922662  0.314978  1
  Si  Si81  1  0.001962  0.813430  0.071430  1
  Si  Si82  1  0.692478  0.002054  0.071284  1
  Si  Si83  1  0.504431  0.692638  0.069951  1
  Si  Si84  1  0.813037  0.504523  0.070151  1
  Si  Si85  1  0.003939  0.310062  0.571622  1
  Si  Si86  1  0.308261  0.499948  0.572850  1
  Si  Si87  1  0.494907  0.192016  0.572753  1
  Si  Si88  1  0.190981  0.007100  0.571709  1
  Si  Si89  1  0.007049  0.191798  0.927846  1
  Si  Si90  1  0.310963  0.007496  0.927655  1
  Si  Si91  1  0.496111  0.311487  0.926823  1
  Si  Si92  1  0.191536  0.496356  0.926974  1
  Si  Si93  1  0.999267  0.687139  0.429903  1
  Si  Si94  1  0.690152  0.498570  0.429026  1
  Si  Si95  1  0.504597  0.806758  0.428723  1
  Si  Si96  1  0.808699  0.992855  0.429428  1
  Si  Si97  1  0.812686  0.507225  0.176590  1
  Si  Si98  1  0.001910  0.818819  0.177843  1
  Si  Si99  1  0.686557  0.001250  0.177608  1
  Si  Si100  1  0.509052  0.682128  0.176346  1
  Si  Si101  1  0.184308  0.004758  0.677829  1
  Si  Si102  1  0.002611  0.313371  0.677611  1
  Si  Si103  1  0.312343  0.499131  0.678325  1
  Si  Si104  1  0.496888  0.185743  0.678631  1
  Si  Si105  1  0.184193  0.498171  0.821062  1
  Si  Si106  1  0.003484  0.185096  0.821747  1
  Si  Si107  1  0.312558  0.004183  0.821564  1
  Si  Si108  1  0.497373  0.314352  0.820858  1
  Si  Si109  1  0.816254  0.993722  0.323046  1
  Si  Si110  1  0.999965  0.678722  0.323754  1
  Si  Si111  1  0.684468  0.495040  0.323000  1
  Si  Si112  1  0.501648  0.810823  0.322003  1
  Si  Si113  1  0.250759  0.751510  0.001127  1
  Si  Si114  1  0.750844  0.252161  0.001014  1
  Si  Si115  1  0.747780  0.252648  0.500161  1
  Si  Si116  1  0.245969  0.741920  0.501003  1
  Si  Si117  1  0.245549  0.750137  0.251356  1
  Si  Si118  1  0.748244  0.243794  0.251900  1
  Si  Si119  1  0.743058  0.249370  0.749719  1
  Si  Si120  1  0.247947  0.743725  0.749731  1
