# generated using pymatgen
data_SiO2
_symmetry_space_group_name_H-M   'P 1'
_cell_length_a   19.21873092
_cell_length_b   8.96222512
_cell_length_c   15.01261002
_cell_angle_alpha   90.00000000
_cell_angle_beta   90.00000000
_cell_angle_gamma   90.00000000
_symmetry_Int_Tables_number   1
_chemical_formula_structural   SiO2
_chemical_formula_sum   'Si48 O96'
_cell_volume   2585.81087587
_cell_formula_units_Z   48
loop_
 _symmetry_equiv_pos_site_id
 _symmetry_equiv_pos_as_xyz
  1  'x, y, z'
loop_
 _atom_site_type_symbol
 _atom_site_label
 _atom_site_symmetry_multiplicity
 _atom_site_fract_x
 _atom_site_fract_y
 _atom_site_fract_z
 _atom_site_occupancy
  O  O1  1  0.750031  0.749834  0.115193  1
  O  O2  1  0.750064  0.249851  0.615191  1
  O  O3  1  0.250074  0.249885  0.115198  1
  O  O4  1  0.250039  0.749879  0.615200  1
  O  O5  1  0.250066  0.749873  0.115200  1
  O  O6  1  0.250038  0.249889  0.615197  1
  O  O7  1  0.750046  0.249845  0.115191  1
  O  O8  1  0.750077  0.749838  0.615193  1
  O  O9  1  0.662460  0.696662  0.237657  1
  O  O10  1  0.662502  0.196655  0.737658  1
  O  O11  1  0.162501  0.196715  0.237661  1
  O  O12  1  0.162460  0.696725  0.737663  1
  O  O13  1  0.337645  0.696723  0.237667  1
  O  O14  1  0.337609  0.196717  0.737663  1
  O  O15  1  0.837608  0.196654  0.237657  1
  O  O16  1  0.837644  0.696662  0.737663  1
  O  O17  1  0.662468  0.302998  0.237658  1
  O  O18  1  0.662504  0.803004  0.737655  1
  O  O19  1  0.162504  0.803064  0.237666  1
  O  O20  1  0.162469  0.303060  0.737665  1
  O  O21  1  0.337641  0.303059  0.237667  1
  O  O22  1  0.337600  0.803067  0.737669  1
  O  O23  1  0.837601  0.803004  0.237661  1
  O  O24  1  0.837642  0.302999  0.737657  1
  O  O25  1  0.619291  0.796296  0.909781  1
  O  O26  1  0.619268  0.296311  0.409797  1
  O  O27  1  0.119276  0.296365  0.909802  1
  O  O28  1  0.119302  0.796354  0.409790  1
  O  O29  1  0.380801  0.796354  0.909794  1
  O  O30  1  0.380832  0.296363  0.409804  1
  O  O31  1  0.880843  0.296305  0.909796  1
  O  O32  1  0.880810  0.796299  0.409788  1
  O  O33  1  0.619300  0.203365  0.909784  1
  O  O34  1  0.619267  0.703355  0.409796  1
  O  O35  1  0.119259  0.703409  0.909806  1
  O  O36  1  0.119291  0.203423  0.409790  1
  O  O37  1  0.380818  0.203425  0.909792  1
  O  O38  1  0.380844  0.703410  0.409809  1
  O  O39  1  0.880834  0.703351  0.909803  1
  O  O40  1  0.880811  0.203370  0.409783  1
  O  O41  1  0.618743  0.758559  0.576907  1
  O  O42  1  0.618716  0.258546  0.076900  1
  O  O43  1  0.118705  0.258605  0.576908  1
  O  O44  1  0.118729  0.758609  0.076920  1
  O  O45  1  0.381377  0.758606  0.576924  1
  O  O46  1  0.381406  0.258607  0.076911  1
  O  O47  1  0.881394  0.258555  0.576899  1
  O  O48  1  0.881365  0.758548  0.076915  1
  O  O49  1  0.618728  0.241104  0.576910  1
  O  O50  1  0.618700  0.741106  0.076897  1
  O  O51  1  0.118709  0.741163  0.576904  1
  O  O52  1  0.118739  0.241152  0.076912  1
  O  O53  1  0.381373  0.241151  0.576915  1
  O  O54  1  0.381396  0.741167  0.076908  1
  O  O55  1  0.881408  0.741117  0.576905  1
  O  O56  1  0.881381  0.241094  0.076908  1
  O  O57  1  0.750066  0.749818  0.862861  1
  O  O58  1  0.750037  0.249835  0.362859  1
  O  O59  1  0.250046  0.249915  0.862865  1
  O  O60  1  0.250078  0.749905  0.362868  1
  O  O61  1  0.250025  0.749913  0.862868  1
  O  O62  1  0.250063  0.249908  0.362865  1
  O  O63  1  0.750074  0.249820  0.862859  1
  O  O64  1  0.750034  0.749832  0.362861  1
  O  O65  1  0.694284  0.999823  0.847840  1
  O  O66  1  0.694250  0.499832  0.347833  1
  O  O67  1  0.194249  0.499904  0.847840  1
  O  O68  1  0.194284  0.999900  0.347847  1
  O  O69  1  0.305822  0.999905  0.847850  1
  O  O70  1  0.305857  0.499900  0.347843  1
  O  O71  1  0.805857  0.499823  0.847836  1
  O  O72  1  0.805823  0.999832  0.347843  1
  O  O73  1  0.500047  0.792299  0.994952  1
  O  O74  1  0.500050  0.292291  0.495021  1
  O  O75  1  0.000060  0.292286  0.995021  1
  O  O76  1  0.000058  0.792303  0.494951  1
  O  O77  1  0.500060  0.207420  0.994961  1
  O  O78  1  0.500058  0.707428  0.495035  1
  O  O79  1  0.000047  0.707423  0.995034  1
  O  O80  1  0.000050  0.207423  0.494962  1
  O  O81  1  0.684637  0.999837  0.617936  1
  O  O82  1  0.684596  0.499833  0.117938  1
  O  O83  1  0.184597  0.499886  0.617945  1
  O  O84  1  0.184637  0.999881  0.117943  1
  O  O85  1  0.315473  0.999883  0.617945  1
  O  O86  1  0.315512  0.499884  0.117947  1
  O  O87  1  0.815513  0.499839  0.617940  1
  O  O88  1  0.815472  0.999830  0.117938  1
  O  O89  1  0.587271  0.999833  0.018271  1
  O  O90  1  0.587274  0.499837  0.518308  1
  O  O91  1  0.087273  0.499877  0.018315  1
  O  O92  1  0.087271  0.999882  0.518278  1
  O  O93  1  0.412836  0.999883  0.018279  1
  O  O94  1  0.412834  0.499877  0.518317  1
  O  O95  1  0.912833  0.499828  0.018310  1
  O  O96  1  0.912836  0.999840  0.518272  1
  Si  Si97  1  0.678204  0.827274  0.635257  1
  Si  Si98  1  0.678170  0.327269  0.135258  1
  Si  Si99  1  0.178164  0.327322  0.635264  1
  Si  Si100  1  0.178196  0.827319  0.135264  1
  Si  Si101  1  0.321910  0.827321  0.635267  1
  Si  Si102  1  0.321946  0.327321  0.135266  1
  Si  Si103  1  0.821939  0.327275  0.635259  1
  Si  Si104  1  0.821903  0.827267  0.135261  1
  Si  Si105  1  0.678195  0.172399  0.635256  1
  Si  Si106  1  0.678158  0.672395  0.135257  1
  Si  Si107  1  0.178165  0.672449  0.635265  1
  Si  Si108  1  0.178202  0.172445  0.135263  1
  Si  Si109  1  0.321909  0.172446  0.635265  1
  Si  Si110  1  0.321942  0.672448  0.135268  1
  Si  Si111  1  0.821949  0.672401  0.635262  1
  Si  Si112  1  0.821915  0.172393  0.135257  1
  Si  Si113  1  0.678908  0.671163  0.339791  1
  Si  Si114  1  0.678947  0.171155  0.839791  1
  Si  Si115  1  0.178940  0.171228  0.339798  1
  Si  Si116  1  0.178901  0.671232  0.839800  1
  Si  Si117  1  0.321203  0.671228  0.339803  1
  Si  Si118  1  0.321169  0.171232  0.839800  1
  Si  Si119  1  0.821163  0.171162  0.339791  1
  Si  Si120  1  0.821195  0.671155  0.839796  1
  Si  Si121  1  0.678910  0.328501  0.339793  1
  Si  Si122  1  0.678942  0.828494  0.839791  1
  Si  Si123  1  0.178950  0.828567  0.339799  1
  Si  Si124  1  0.178916  0.328570  0.839798  1
  Si  Si125  1  0.321192  0.328567  0.339800  1
  Si  Si126  1  0.321154  0.828571  0.839802  1
  Si  Si127  1  0.821161  0.828501  0.339796  1
  Si  Si128  1  0.821200  0.328494  0.839793  1
  Si  Si129  1  0.580187  0.827449  0.000687  1
  Si  Si130  1  0.580190  0.327453  0.500723  1
  Si  Si131  1  0.080197  0.327492  0.000727  1
  Si  Si132  1  0.080194  0.827496  0.500693  1
  Si  Si133  1  0.419911  0.827497  0.000695  1
  Si  Si134  1  0.419913  0.327493  0.500728  1
  Si  Si135  1  0.919919  0.327445  0.000723  1
  Si  Si136  1  0.919918  0.827455  0.500690  1
  Si  Si137  1  0.580196  0.172220  0.000690  1
  Si  Si138  1  0.580195  0.672223  0.500726  1
  Si  Si139  1  0.080188  0.672262  0.000735  1
  Si  Si140  1  0.080190  0.172268  0.500697  1
  Si  Si141  1  0.419920  0.172268  0.000698  1
  Si  Si142  1  0.419917  0.672263  0.500737  1
  Si  Si143  1  0.919910  0.672215  0.000729  1
  Si  Si144  1  0.919913  0.172227  0.500690  1
