# generated using pymatgen
data_SiO2
_symmetry_space_group_name_H-M   'P 1'
_cell_length_a   10.05211044
_cell_length_b   10.03404589
_cell_length_c   33.79093266
_cell_angle_alpha   90.00000000
_cell_angle_beta   90.00000000
_cell_angle_gamma   90.00000000
_symmetry_Int_Tables_number   1
_chemical_formula_structural   SiO2
_chemical_formula_sum   'Si60 O120'
_cell_volume   3408.26624248
_cell_formula_units_Z   60
loop_
 _symmetry_equiv_pos_site_id
 _symmetry_equiv_pos_as_xyz
  1  'x, y, z'
loop_
 _atom_site_type_symbol
 _atom_site_label
 _atom_site_symmetry_multiplicity
 _atom_site_fract_x
 _atom_site_fract_y
 _atom_site_fract_z
 _atom_site_occupancy
  O  O1  1  0.000447  0.190906  0.078934  1
  O  O2  1  0.499482  0.308838  0.078908  1
  O  O3  1  0.192136  0.999717  0.078968  1
  O  O4  1  0.307693  0.499916  0.079002  1
  O  O5  1  0.956148  0.358465  0.133390  1
  O  O6  1  0.543815  0.141222  0.133322  1
  O  O7  1  0.358583  0.957472  0.133824  1
  O  O8  1  0.141319  0.542242  0.133894  1
  O  O9  1  0.902460  0.417238  0.063530  1
  O  O10  1  0.597467  0.082535  0.063464  1
  O  O11  1  0.419106  0.900149  0.064614  1
  O  O12  1  0.080735  0.599596  0.064687  1
  O  O13  1  0.749982  0.249865  0.098814  1
  O  O14  1  0.249988  0.749820  0.099927  1
  O  O15  1  0.655706  0.845155  0.037134  1
  O  O16  1  0.844245  0.654516  0.037113  1
  Si  Si17  1  0.749967  0.749850  0.012947  1
  O  O18  1  0.003493  0.503343  0.000018  1
  O  O19  1  0.165095  0.164318  0.018470  1
  O  O20  1  0.334762  0.335401  0.018475  1
  O  O21  1  0.249963  0.249813  0.079999  1
  Si  Si22  1  0.897515  0.298904  0.093906  1
  Si  Si23  1  0.602463  0.200842  0.093851  1
  Si  Si24  1  0.299523  0.897143  0.094507  1
  Si  Si25  1  0.200362  0.602506  0.094563  1
  Si  Si26  1  0.544382  0.954402  0.041959  1
  Si  Si27  1  0.955555  0.545303  0.041995  1
  Si  Si28  1  0.462298  0.038950  0.159323  1
  Si  Si29  1  0.037619  0.460761  0.159401  1
  Si  Si30  1  0.142907  0.142130  0.065080  1
  Si  Si31  1  0.356962  0.357557  0.065085  1
  O  O32  1  0.003412  0.002936  0.248425  1
  O  O33  1  0.496585  0.496943  0.248461  1
  O  O34  1  0.503445  0.996956  0.251562  1
  O  O35  1  0.996582  0.502895  0.251642  1
  O  O36  1  0.068605  0.250326  0.261738  1
  O  O37  1  0.431458  0.249489  0.261658  1
  O  O38  1  0.250870  0.069728  0.261451  1
  O  O39  1  0.249183  0.430068  0.261530  1
  O  O40  1  0.750792  0.930752  0.238412  1
  O  O41  1  0.749202  0.569085  0.238526  1
  O  O42  1  0.569223  0.749449  0.238420  1
  O  O43  1  0.930763  0.750380  0.238450  1
  O  O44  1  0.060481  0.059644  0.316822  1
  O  O45  1  0.439863  0.439765  0.316847  1
  O  O46  1  0.560478  0.940180  0.183169  1
  O  O47  1  0.939420  0.559510  0.183247  1
  O  O48  1  0.392407  0.109586  0.196712  1
  O  O49  1  0.107564  0.390199  0.196793  1
  O  O50  1  0.891314  0.891354  0.303276  1
  O  O51  1  0.608377  0.608742  0.303324  1
  Si  Si52  1  0.100834  0.100648  0.272428  1
  Si  Si53  1  0.399262  0.399089  0.272445  1
  Si  Si54  1  0.600937  0.899303  0.227567  1
  Si  Si55  1  0.899033  0.600490  0.227644  1
  Si  Si56  1  0.392510  0.108566  0.244468  1
  Si  Si57  1  0.107518  0.391271  0.244552  1
  Si  Si58  1  0.892021  0.891774  0.255515  1
  Si  Si59  1  0.607907  0.608160  0.255564  1
  O  O60  1  0.691483  0.999919  0.420965  1
  O  O61  1  0.808207  0.500263  0.421141  1
  O  O62  1  0.500092  0.808549  0.421005  1
  O  O63  1  0.999675  0.691733  0.421176  1
  O  O64  1  0.859395  0.042966  0.366551  1
  O  O65  1  0.641840  0.456547  0.366319  1
  O  O66  1  0.457002  0.640595  0.366625  1
  O  O67  1  0.043266  0.857839  0.366292  1
  O  O68  1  0.917754  0.097533  0.436382  1
  O  O69  1  0.581417  0.400493  0.435658  1
  O  O70  1  0.402436  0.582256  0.436455  1
  O  O71  1  0.099601  0.918680  0.435552  1
  O  O72  1  0.751101  0.249985  0.400695  1
  O  O73  1  0.249978  0.748784  0.400689  1
  O  O74  1  0.154797  0.155464  0.462918  1
  O  O75  1  0.344355  0.345021  0.462849  1
  O  O76  1  0.664575  0.835442  0.481529  1
  O  O77  1  0.834883  0.665023  0.481574  1
  O  O78  1  0.749890  0.750082  0.420022  1
  Si  Si79  1  0.799785  0.102337  0.405920  1
  Si  Si80  1  0.701001  0.397215  0.405767  1
  Si  Si81  1  0.397568  0.700278  0.405970  1
  Si  Si82  1  0.102800  0.798791  0.405729  1
  Si  Si83  1  0.045375  0.044341  0.458070  1
  Si  Si84  1  0.455586  0.454438  0.458105  1
  Si  Si85  1  0.961859  0.961335  0.340667  1
  Si  Si86  1  0.538442  0.538083  0.340707  1
  Si  Si87  1  0.642447  0.857487  0.434906  1
  Si  Si88  1  0.857234  0.642793  0.434977  1
  Si  Si89  1  0.249624  0.250264  0.487077  1
  O  O90  1  0.308177  0.000345  0.578833  1
  O  O91  1  0.191388  0.500020  0.578967  1
  O  O92  1  0.499631  0.191902  0.578853  1
  O  O93  1  0.000018  0.308547  0.579000  1
  O  O94  1  0.142264  0.956957  0.633770  1
  O  O95  1  0.358820  0.542693  0.633512  1
  O  O96  1  0.543005  0.357788  0.633823  1
  O  O97  1  0.957177  0.140839  0.633481  1
  O  O98  1  0.081100  0.900311  0.564569  1
  O  O99  1  0.417962  0.597878  0.563817  1
  O  O100  1  0.599737  0.418962  0.564637  1
  O  O101  1  0.902205  0.082123  0.563716  1
  O  O102  1  0.251050  0.750061  0.599437  1
  O  O103  1  0.749933  0.248856  0.599439  1
  O  O104  1  0.844364  0.845068  0.537110  1
  O  O105  1  0.654767  0.655475  0.537038  1
  O  O106  1  0.003120  0.996919  0.500073  1
  O  O107  1  0.502220  0.496336  0.500216  1
  O  O108  1  0.334914  0.165089  0.518426  1
  O  O109  1  0.164458  0.335440  0.518449  1
  O  O110  1  0.249827  0.250180  0.579959  1
  Si  Si111  1  0.201091  0.897339  0.594317  1
  Si  Si112  1  0.299578  0.602372  0.594138  1
  Si  Si113  1  0.602730  0.298863  0.594389  1
  Si  Si114  1  0.897545  0.200361  0.594133  1
  Si  Si115  1  0.955520  0.954422  0.542034  1
  Si  Si116  1  0.545372  0.544465  0.542066  1
  Si  Si117  1  0.038699  0.038288  0.659374  1
  Si  Si118  1  0.461422  0.461299  0.659406  1
  Si  Si119  1  0.357222  0.142918  0.565024  1
  Si  Si120  1  0.142341  0.357524  0.565068  1
  Si  Si121  1  0.749648  0.750261  0.512911  1
  O  O122  1  0.496773  0.003280  0.748397  1
  O  O123  1  0.002942  0.496634  0.748472  1
  O  O124  1  0.996716  0.996640  0.751599  1
  O  O125  1  0.502968  0.503279  0.751636  1
  O  O126  1  0.249308  0.069167  0.761651  1
  O  O127  1  0.250386  0.430722  0.761730  1
  O  O128  1  0.430697  0.250653  0.761599  1
  O  O129  1  0.068987  0.249226  0.761652  1
  O  O130  1  0.930094  0.749182  0.738534  1
  O  O131  1  0.569673  0.750704  0.738491  1
  O  O132  1  0.749386  0.931335  0.738217  1
  O  O133  1  0.750369  0.568538  0.738332  1
  O  O134  1  0.440333  0.060316  0.816816  1
  O  O135  1  0.059401  0.439536  0.816884  1
  O  O136  1  0.940273  0.939642  0.683176  1
  O  O137  1  0.559827  0.559931  0.683218  1
  O  O138  1  0.108551  0.108756  0.696799  1
  O  O139  1  0.390908  0.391450  0.696823  1
  O  O140  1  0.609708  0.892302  0.803207  1
  O  O141  1  0.890126  0.607683  0.803289  1
  Si  Si142  1  0.399206  0.100767  0.772435  1
  Si  Si143  1  0.100482  0.399102  0.772502  1
  Si  Si144  1  0.899090  0.899236  0.727554  1
  Si  Si145  1  0.600716  0.600582  0.727599  1
  Si  Si146  1  0.107977  0.107981  0.744561  1
  Si  Si147  1  0.391656  0.391995  0.744584  1
  Si  Si148  1  0.608494  0.892404  0.755445  1
  Si  Si149  1  0.891276  0.607546  0.755529  1
  O  O150  1  0.000043  0.807695  0.921104  1
  O  O151  1  0.499878  0.692150  0.921070  1
  O  O152  1  0.808885  0.999434  0.921126  1
  O  O153  1  0.690927  0.500294  0.921159  1
  O  O154  1  0.042156  0.641449  0.866204  1
  O  O155  1  0.457753  0.858378  0.866133  1
  O  O156  1  0.641505  0.043609  0.866623  1
  O  O157  1  0.858326  0.456258  0.866691  1
  O  O158  1  0.099780  0.580644  0.935363  1
  O  O159  1  0.400139  0.919206  0.935295  1
  O  O160  1  0.582497  0.097478  0.936447  1
  O  O161  1  0.917349  0.402354  0.936511  1
  O  O162  1  0.249969  0.749909  0.900067  1
  O  O163  1  0.749983  0.249869  0.901186  1
  O  O164  1  0.345278  0.155587  0.962948  1
  O  O165  1  0.154655  0.344115  0.962926  1
  O  O166  1  0.835484  0.834723  0.981587  1
  O  O167  1  0.664386  0.665045  0.981587  1
  O  O168  1  0.749958  0.749866  0.920063  1
  Si  Si169  1  0.102709  0.700444  0.905500  1
  Si  Si170  1  0.397247  0.799392  0.905441  1
  Si  Si171  1  0.700878  0.102269  0.906127  1
  Si  Si172  1  0.798991  0.397482  0.906182  1
  Si  Si173  1  0.454570  0.044395  0.958002  1
  Si  Si174  1  0.045371  0.455364  0.958035  1
  Si  Si175  1  0.539205  0.962144  0.840627  1
  Si  Si176  1  0.960605  0.537762  0.840702  1
  Si  Si177  1  0.857733  0.856830  0.934979  1
  Si  Si178  1  0.642125  0.642957  0.934979  1
  Si  Si179  1  0.249947  0.249851  0.987112  1
  O  O180  1  0.496703  0.996164  0.999937  1
