# generated using pymatgen
data_SiO2
_symmetry_space_group_name_H-M   'P 1'
_cell_length_a   18.62433213
_cell_length_b   18.63077127
_cell_length_c   8.35219177
_cell_angle_alpha   90.00000000
_cell_angle_beta   90.00000000
_cell_angle_gamma   120.00000000
_symmetry_Int_Tables_number   1
_chemical_formula_structural   SiO2
_chemical_formula_sum   'Si36 O72'
_cell_volume   2509.82031943
_cell_formula_units_Z   36
loop_
 _symmetry_equiv_pos_site_id
 _symmetry_equiv_pos_as_xyz
  1  'x, y, z'
loop_
 _atom_site_type_symbol
 _atom_site_label
 _atom_site_symmetry_multiplicity
 _atom_site_fract_x
 _atom_site_fract_y
 _atom_site_fract_z
 _atom_site_occupancy
  O  O1  1  0.193754  0.597513  0.012867  1
  O  O2  1  0.401197  0.598090  0.013240  1
  O  O3  1  0.399769  0.804128  0.006561  1
  O  O4  1  0.802975  0.401697  0.487048  1
  O  O5  1  0.596099  0.402253  0.487438  1
  O  O6  1  0.595493  0.195648  0.493662  1
  O  O7  1  0.399782  0.804128  0.493704  1
  O  O8  1  0.401205  0.598087  0.487049  1
  O  O9  1  0.193765  0.597516  0.487427  1
  O  O10  1  0.595481  0.195648  0.006603  1
  O  O11  1  0.596089  0.402255  0.012857  1
  O  O12  1  0.802964  0.401695  0.013241  1
  O  O13  1  0.244834  0.753173  0.991293  1
  O  O14  1  0.245500  0.494064  0.990680  1
  O  O15  1  0.504715  0.753080  0.991225  1
  O  O16  1  0.751496  0.246724  0.509108  1
  O  O17  1  0.751324  0.505717  0.509569  1
  O  O18  1  0.491500  0.246580  0.509012  1
  O  O19  1  0.244846  0.753175  0.508999  1
  O  O20  1  0.504724  0.753079  0.509066  1
  O  O21  1  0.245511  0.494061  0.509593  1
  O  O22  1  0.751486  0.246723  0.991184  1
  O  O23  1  0.491489  0.246581  0.991280  1
  O  O24  1  0.751310  0.505714  0.990704  1
  O  O25  1  0.085752  0.643913  0.986979  1
  O  O26  1  0.354313  0.443670  0.987000  1
  O  O27  1  0.553473  0.911811  0.996674  1
  O  O28  1  0.910607  0.355143  0.499252  1
  O  O29  1  0.643055  0.556497  0.498927  1
  O  O30  1  0.439901  0.087391  0.488938  1
  O  O31  1  0.352412  0.912358  0.488929  1
  O  O32  1  0.555397  0.644652  0.499260  1
  O  O33  1  0.086444  0.443283  0.498916  1
  O  O34  1  0.641537  0.087995  0.996684  1
  O  O35  1  0.441684  0.355847  0.986989  1
  O  O36  1  0.910533  0.556102  0.986987  1
  O  O37  1  0.910597  0.355141  0.001022  1
  O  O38  1  0.643047  0.556498  0.001369  1
  O  O39  1  0.439891  0.087393  0.011345  1
  O  O40  1  0.085764  0.643916  0.513295  1
  O  O41  1  0.354323  0.443669  0.513297  1
  O  O42  1  0.553483  0.911810  0.503609  1
  O  O43  1  0.641549  0.087997  0.503600  1
  O  O44  1  0.441693  0.355843  0.513285  1
  O  O45  1  0.910543  0.556103  0.513311  1
  O  O46  1  0.352399  0.912355  0.011354  1
  O  O47  1  0.555388  0.644654  0.001014  1
  O  O48  1  0.086435  0.443282  0.001379  1
  O  O49  1  0.179735  0.657010  0.750143  1
  O  O50  1  0.341894  0.524907  0.750144  1
  O  O51  1  0.479244  0.822376  0.750138  1
  O  O52  1  0.818415  0.323984  0.250142  1
  O  O53  1  0.674042  0.495045  0.250142  1
  O  O54  1  0.509255  0.184692  0.250142  1
  O  O55  1  0.324523  0.815071  0.250140  1
  O  O56  1  0.494379  0.675802  0.250140  1
  O  O57  1  0.178916  0.504729  0.250140  1
  O  O58  1  0.656671  0.177393  0.750136  1
  O  O59  1  0.522554  0.342744  0.750141  1
  O  O60  1  0.816834  0.474866  0.750142  1
  O  O61  1  0.496906  0.999887  0.985551  1
  O  O62  1  0.998312  0.499974  0.019873  1
  O  O63  1  0.498227  0.499805  0.019868  1
  O  O64  1  0.496918  0.999887  0.514755  1
  O  O65  1  0.998322  0.499975  0.480406  1
  O  O66  1  0.498237  0.499803  0.480412  1
  O  O67  1  0.565895  0.999887  0.250145  1
  O  O68  1  0.998166  0.589594  0.250141  1
  O  O69  1  0.408446  0.410177  0.250141  1
  O  O70  1  0.409829  0.999876  0.750140  1
  O  O71  1  0.998578  0.434002  0.750141  1
  O  O72  1  0.564477  0.565787  0.750141  1
  Si  Si73  1  0.176653  0.664602  0.935392  1
  Si  Si74  1  0.333969  0.514103  0.935386  1
  Si  Si75  1  0.485320  0.821751  0.935737  1
  Si  Si76  1  0.820216  0.330405  0.435980  1
  Si  Si77  1  0.667572  0.490639  0.436003  1
  Si  Si78  1  0.508005  0.178674  0.435814  1
  Si  Si79  1  0.329273  0.821093  0.435815  1
  Si  Si80  1  0.489755  0.669393  0.435982  1
  Si  Si81  1  0.176845  0.509136  0.436003  1
  Si  Si82  1  0.663402  0.178033  0.935736  1
  Si  Si83  1  0.511883  0.335149  0.935394  1
  Si  Si84  1  0.819728  0.485673  0.935387  1
  Si  Si85  1  0.820206  0.330403  0.064301  1
  Si  Si86  1  0.667564  0.490639  0.064284  1
  Si  Si87  1  0.507997  0.178675  0.064464  1
  Si  Si88  1  0.176663  0.664603  0.564891  1
  Si  Si89  1  0.333976  0.514101  0.564900  1
  Si  Si90  1  0.485328  0.821750  0.564544  1
  Si  Si91  1  0.663411  0.178033  0.564546  1
  Si  Si92  1  0.511892  0.335149  0.564891  1
  Si  Si93  1  0.819738  0.485675  0.564901  1
  Si  Si94  1  0.329264  0.821093  0.064465  1
  Si  Si95  1  0.489748  0.669396  0.064301  1
  Si  Si96  1  0.176836  0.509136  0.064287  1
  Si  Si97  1  0.572457  0.999893  0.061870  1
  Si  Si98  1  0.998181  0.580458  0.062302  1
  Si  Si99  1  0.417597  0.419311  0.062304  1
  Si  Si100  1  0.417068  0.999881  0.562279  1
  Si  Si101  1  0.998504  0.425574  0.562049  1
  Si  Si102  1  0.572834  0.574216  0.562051  1
  Si  Si103  1  0.417058  0.999882  0.938010  1
  Si  Si104  1  0.998494  0.425572  0.938233  1
  Si  Si105  1  0.572827  0.574217  0.938232  1
  Si  Si106  1  0.572466  0.999892  0.438420  1
  Si  Si107  1  0.998191  0.580461  0.437981  1
  Si  Si108  1  0.417604  0.419309  0.437980  1
