# generated using pymatgen
data_SiO2
_symmetry_space_group_name_H-M   'P 1'
_cell_length_a   13.08781239
_cell_length_b   13.09520329
_cell_length_c   10.10746610
_cell_angle_alpha   90.00000000
_cell_angle_beta   90.00000000
_cell_angle_gamma   90.00000000
_symmetry_Int_Tables_number   1
_chemical_formula_structural   SiO2
_chemical_formula_sum   'Si34 O68'
_cell_volume   1732.29399217
_cell_formula_units_Z   34
loop_
 _symmetry_equiv_pos_site_id
 _symmetry_equiv_pos_as_xyz
  1  'x, y, z'
loop_
 _atom_site_type_symbol
 _atom_site_label
 _atom_site_symmetry_multiplicity
 _atom_site_fract_x
 _atom_site_fract_y
 _atom_site_fract_z
 _atom_site_occupancy
  O  O1  1  0.098595  0.022228  0.335030  1
  O  O2  1  0.977654  0.098542  0.164796  1
  O  O3  1  0.901343  0.977615  0.335030  1
  O  O4  1  0.022284  0.901301  0.164796  1
  O  O5  1  0.253322  0.116012  0.248153  1
  O  O6  1  0.883873  0.253292  0.251659  1
  O  O7  1  0.746616  0.883831  0.248153  1
  O  O8  1  0.116065  0.746552  0.251659  1
  O  O9  1  0.235622  0.101124  0.997630  1
  O  O10  1  0.898756  0.235560  0.502179  1
  O  O11  1  0.764316  0.898719  0.997630  1
  O  O12  1  0.101182  0.764283  0.502179  1
  O  O13  1  0.282749  0.949324  0.356861  1
  O  O14  1  0.050563  0.282687  0.142936  1
  O  O15  1  0.717189  0.050520  0.356861  1
  O  O16  1  0.949375  0.717156  0.142937  1
  O  O17  1  0.724926  0.238160  0.387056  1
  O  O18  1  0.761763  0.724873  0.112743  1
  O  O19  1  0.275011  0.761683  0.387056  1
  O  O20  1  0.238174  0.274970  0.112743  1
  O  O21  1  0.837506  0.405009  0.393728  1
  O  O22  1  0.594897  0.837454  0.106078  1
  O  O23  1  0.162431  0.594834  0.393728  1
  O  O24  1  0.405041  0.162389  0.106078  1
  O  O25  1  0.573181  0.153987  0.253101  1
  O  O26  1  0.845889  0.573120  0.246659  1
  O  O27  1  0.426756  0.845857  0.253102  1
  O  O28  1  0.154048  0.426723  0.246659  1
  O  O29  1  0.584611  0.135102  0.003218  1
  O  O30  1  0.864784  0.584567  0.496541  1
  O  O31  1  0.415327  0.864742  0.003218  1
  O  O32  1  0.135154  0.415276  0.496541  1
  O  O33  1  0.499969  0.999922  0.140611  1
  O  O34  1  0.999969  0.499922  0.359170  1
  Si  Si35  1  0.214717  0.046695  0.362464  1
  Si  Si36  1  0.953193  0.214602  0.137364  1
  Si  Si37  1  0.785220  0.953149  0.362464  1
  Si  Si38  1  0.046745  0.785242  0.137364  1
  Si  Si39  1  0.835823  0.285102  0.386531  1
  Si  Si40  1  0.714874  0.835741  0.113292  1
  Si  Si41  1  0.164114  0.714742  0.386531  1
  Si  Si42  1  0.285064  0.164102  0.113292  1
  Si  Si43  1  0.647871  0.146362  0.374214  1
  Si  Si44  1  0.853553  0.647784  0.125567  1
  Si  Si45  1  0.352067  0.853481  0.374214  1
  Si  Si46  1  0.146385  0.352059  0.125566  1
  Si  Si47  1  0.515250  0.117130  0.125734  1
  Si  Si48  1  0.882696  0.515196  0.374048  1
  Si  Si49  1  0.484688  0.882714  0.125734  1
  Si  Si50  1  0.117242  0.484648  0.374048  1
  Si  Si51  1  0.999969  0.999922  0.249855  1
  O  O52  1  0.098595  0.022228  0.835030  1
  O  O53  1  0.977654  0.098542  0.664796  1
  O  O54  1  0.901343  0.977615  0.835030  1
  O  O55  1  0.022284  0.901301  0.664796  1
  O  O56  1  0.253322  0.116012  0.748153  1
  O  O57  1  0.883873  0.253292  0.751659  1
  O  O58  1  0.746616  0.883831  0.748153  1
  O  O59  1  0.116065  0.746552  0.751659  1
  O  O60  1  0.235622  0.101124  0.497630  1
  O  O61  1  0.898756  0.235560  0.002179  1
  O  O62  1  0.764316  0.898719  0.497630  1
  O  O63  1  0.101182  0.764283  0.002179  1
  O  O64  1  0.282749  0.949324  0.856861  1
  O  O65  1  0.050562  0.282688  0.642936  1
  O  O66  1  0.717189  0.050520  0.856861  1
  O  O67  1  0.949375  0.717156  0.642936  1
  O  O68  1  0.724926  0.238160  0.887056  1
  O  O69  1  0.761763  0.724873  0.612743  1
  O  O70  1  0.275011  0.761683  0.887056  1
  O  O71  1  0.238174  0.274970  0.612743  1
  O  O72  1  0.837507  0.405009  0.893728  1
  O  O73  1  0.594897  0.837454  0.606078  1
  O  O74  1  0.162431  0.594834  0.893728  1
  O  O75  1  0.405041  0.162389  0.606078  1
  O  O76  1  0.573181  0.153987  0.753102  1
  O  O77  1  0.845889  0.573120  0.746659  1
  O  O78  1  0.426757  0.845857  0.753102  1
  O  O79  1  0.154048  0.426723  0.746659  1
  O  O80  1  0.584611  0.135102  0.503218  1
  O  O81  1  0.864784  0.584567  0.996541  1
  O  O82  1  0.415327  0.864742  0.503218  1
  O  O83  1  0.135154  0.415276  0.996541  1
  O  O84  1  0.499969  0.999922  0.640611  1
  O  O85  1  0.999969  0.499921  0.859170  1
  Si  Si86  1  0.214717  0.046694  0.862464  1
  Si  Si87  1  0.953193  0.214602  0.637364  1
  Si  Si88  1  0.785221  0.953149  0.862464  1
  Si  Si89  1  0.046745  0.785241  0.637364  1
  Si  Si90  1  0.835823  0.285102  0.886532  1
  Si  Si91  1  0.714874  0.835741  0.613292  1
  Si  Si92  1  0.164114  0.714742  0.886531  1
  Si  Si93  1  0.285064  0.164102  0.613292  1
  Si  Si94  1  0.647871  0.146362  0.874214  1
  Si  Si95  1  0.853553  0.647784  0.625567  1
  Si  Si96  1  0.352066  0.853481  0.874214  1
  Si  Si97  1  0.146385  0.352059  0.625566  1
  Si  Si98  1  0.515250  0.117130  0.625734  1
  Si  Si99  1  0.882696  0.515196  0.874048  1
  Si  Si100  1  0.484688  0.882714  0.625734  1
  Si  Si101  1  0.117242  0.484648  0.874048  1
  Si  Si102  1  0.999969  0.999922  0.749855  1
