# generated using pymatgen
data_SiO2
_symmetry_space_group_name_H-M   'P 1'
_cell_length_a   11.74074927
_cell_length_b   9.96767966
_cell_length_c   10.10371639
_cell_angle_alpha   90.00000000
_cell_angle_beta   90.00000000
_cell_angle_gamma   90.00000000
_symmetry_Int_Tables_number   1
_chemical_formula_structural   SiO2
_chemical_formula_sum   'Si20 O40'
_cell_volume   1182.41800104
_cell_formula_units_Z   20
loop_
 _symmetry_equiv_pos_site_id
 _symmetry_equiv_pos_as_xyz
  1  'x, y, z'
loop_
 _atom_site_type_symbol
 _atom_site_label
 _atom_site_symmetry_multiplicity
 _atom_site_fract_x
 _atom_site_fract_y
 _atom_site_fract_z
 _atom_site_occupancy
  O  O1  1  0.414212  0.088705  0.167732  1
  O  O2  1  0.914653  0.587424  0.167060  1
  O  O3  1  0.583003  0.089945  0.666053  1
  O  O4  1  0.082069  0.587854  0.665042  1
  O  O5  1  0.414612  0.914696  0.670597  1
  O  O6  1  0.917402  0.409712  0.666263  1
  O  O7  1  0.585230  0.917273  0.164812  1
  O  O8  1  0.084424  0.414504  0.166443  1
  O  O9  1  0.586598  0.918392  0.836795  1
  O  O10  1  0.086879  0.414615  0.830425  1
  O  O11  1  0.415303  0.910972  0.331238  1
  O  O12  1  0.915415  0.410578  0.331940  1
  O  O13  1  0.584500  0.084816  0.331640  1
  O  O14  1  0.084036  0.585097  0.331310  1
  O  O15  1  0.417304  0.090810  0.833193  1
  O  O16  1  0.913106  0.584538  0.829976  1
  O  O17  1  0.259271  0.073253  0.999160  1
  O  O18  1  0.757708  0.570121  0.000878  1
  O  O19  1  0.740955  0.073886  0.500480  1
  O  O20  1  0.240758  0.573505  0.500631  1
  O  O21  1  0.258891  0.925283  0.499479  1
  O  O22  1  0.760034  0.425477  0.500684  1
  O  O23  1  0.748275  0.931228  0.001289  1
  O  O24  1  0.243679  0.425478  0.000017  1
  O  O25  1  0.236642  0.998698  0.249518  1
  O  O26  1  0.737053  0.499617  0.251390  1
  O  O27  1  0.760595  0.999543  0.750772  1
  O  O28  1  0.263084  0.500339  0.750257  1
  O  O29  1  0.237551  0.999836  0.749072  1
  O  O30  1  0.736753  0.499102  0.750155  1
  O  O31  1  0.764753  0.999636  0.251010  1
  O  O32  1  0.263012  0.498889  0.250458  1
  O  O33  1  0.248343  0.249062  0.182226  1
  O  O34  1  0.749454  0.749782  0.178824  1
  O  O35  1  0.750016  0.249478  0.682575  1
  O  O36  1  0.248231  0.749508  0.682428  1
  O  O37  1  0.748193  0.749307  0.823637  1
  O  O38  1  0.250995  0.249879  0.817053  1
  O  O39  1  0.249915  0.749089  0.317415  1
  O  O40  1  0.749547  0.249239  0.318014  1
  Si  Si41  1  0.283688  0.102215  0.149153  1
  Si  Si42  1  0.784216  0.601346  0.149313  1
  Si  Si43  1  0.713213  0.103893  0.648229  1
  Si  Si44  1  0.212754  0.602254  0.649660  1
  Si  Si45  1  0.282958  0.895739  0.648283  1
  Si  Si46  1  0.786727  0.396264  0.650119  1
  Si  Si47  1  0.718871  0.899071  0.145532  1
  Si  Si48  1  0.216673  0.396168  0.147899  1
  Si  Si49  1  0.718467  0.896765  0.858364  1
  Si  Si50  1  0.218685  0.396597  0.851710  1
  Si  Si51  1  0.284885  0.896209  0.350223  1
  Si  Si52  1  0.785219  0.396139  0.351083  1
  Si  Si53  1  0.716580  0.102174  0.351638  1
  Si  Si54  1  0.216166  0.602566  0.351720  1
  Si  Si55  1  0.286468  0.102814  0.849770  1
  Si  Si56  1  0.781385  0.601768  0.852670  1
  Si  Si57  1  0.996168  0.499213  0.249216  1
  Si  Si58  1  0.496196  0.000285  0.249127  1
  Si  Si59  1  0.999880  0.499159  0.745976  1
  Si  Si60  1  0.500823  0.004666  0.751151  1
