# generated using pymatgen
data_SiO2
_symmetry_space_group_name_H-M   'P 1'
_cell_length_a   9.95892594
_cell_length_b   13.82815875
_cell_length_c   6.66394797
_cell_angle_alpha   90.00000000
_cell_angle_beta   111.54500000
_cell_angle_gamma   90.00000000
_symmetry_Int_Tables_number   1
_chemical_formula_structural   SiO2
_chemical_formula_sum   'Si16 O32'
_cell_volume   853.594962335
_cell_formula_units_Z   16
loop_
 _symmetry_equiv_pos_site_id
 _symmetry_equiv_pos_as_xyz
  1  'x, y, z'
loop_
 _atom_site_type_symbol
 _atom_site_label
 _atom_site_symmetry_multiplicity
 _atom_site_fract_x
 _atom_site_fract_y
 _atom_site_fract_z
 _atom_site_occupancy
  O  O1  1  0.256720  0.253562  0.508153  1
  O  O2  1  0.756641  0.753533  0.508106  1
  O  O3  1  0.756723  0.246234  0.508164  1
  O  O4  1  0.256638  0.746256  0.508094  1
  O  O5  1  0.342499  0.171635  0.223496  1
  O  O6  1  0.842486  0.671628  0.223495  1
  O  O7  1  0.651610  0.171524  0.775352  1
  O  O8  1  0.151589  0.671531  0.775334  1
  O  O9  1  0.651589  0.828261  0.775339  1
  O  O10  1  0.151610  0.328269  0.775346  1
  O  O11  1  0.342485  0.828165  0.223488  1
  O  O12  1  0.842500  0.328159  0.223502  1
  O  O13  1  0.266950  0.347038  0.181841  1
  O  O14  1  0.766906  0.847024  0.181835  1
  O  O15  1  0.732298  0.346093  0.816445  1
  O  O16  1  0.232261  0.846103  0.816430  1
  O  O17  1  0.732257  0.653689  0.816437  1
  O  O18  1  0.232302  0.153701  0.816437  1
  O  O19  1  0.266908  0.652767  0.181828  1
  O  O20  1  0.766948  0.152756  0.181849  1
  O  O21  1  0.503395  0.290228  0.492237  1
  O  O22  1  0.003325  0.790229  0.492267  1
  O  O23  1  0.503326  0.709564  0.492266  1
  O  O24  1  0.003395  0.209565  0.492239  1
  O  O25  1  0.331109  0.999899  0.053317  1
  O  O26  1  0.831113  0.499893  0.053324  1
  O  O27  1  0.664083  0.999894  0.944845  1
  O  O28  1  0.164078  0.499899  0.944836  1
  O  O29  1  0.499158  0.128069  0.002896  1
  O  O30  1  0.999123  0.628070  0.002851  1
  O  O31  1  0.499124  0.871724  0.002851  1
  O  O32  1  0.999157  0.371722  0.002895  1
  Si  Si33  1  0.341378  0.266648  0.353527  1
  Si  Si34  1  0.841324  0.766633  0.353519  1
  Si  Si35  1  0.661477  0.264668  0.645506  1
  Si  Si36  1  0.161424  0.764682  0.645489  1
  Si  Si37  1  0.661422  0.735110  0.645494  1
  Si  Si38  1  0.161478  0.235125  0.645500  1
  Si  Si39  1  0.341323  0.733158  0.353512  1
  Si  Si40  1  0.841377  0.233146  0.353533  1
  Si  Si41  1  0.350086  0.111465  0.027124  1
  Si  Si42  1  0.850063  0.611461  0.027113  1
  Si  Si43  1  0.646415  0.111454  0.973026  1
  Si  Si44  1  0.146388  0.611458  0.973002  1
  Si  Si45  1  0.646390  0.888335  0.973008  1
  Si  Si46  1  0.146413  0.388339  0.973020  1
  Si  Si47  1  0.350062  0.888332  0.027110  1
  Si  Si48  1  0.850086  0.388327  0.027129  1
