# generated using pymatgen
data_SiO2
_symmetry_space_group_name_H-M   'P 1'
_cell_length_a   6.96055515
_cell_length_b   15.33319430
_cell_length_c   17.05628652
_cell_angle_alpha   90.00000000
_cell_angle_beta   90.00000000
_cell_angle_gamma   90.00000000
_symmetry_Int_Tables_number   1
_chemical_formula_structural   SiO2
_chemical_formula_sum   'Si32 O64'
_cell_volume   1820.37557957
_cell_formula_units_Z   32
loop_
 _symmetry_equiv_pos_site_id
 _symmetry_equiv_pos_as_xyz
  1  'x, y, z'
loop_
 _atom_site_type_symbol
 _atom_site_label
 _atom_site_symmetry_multiplicity
 _atom_site_fract_x
 _atom_site_fract_y
 _atom_site_fract_z
 _atom_site_occupancy
  O  O1  1  0.955899  0.664313  0.366895  1
  O  O2  1  0.044301  0.164316  0.366903  1
  O  O3  1  0.955962  0.835443  0.866902  1
  O  O4  1  0.044365  0.335446  0.866896  1
  O  O5  1  0.044301  0.335440  0.633161  1
  O  O6  1  0.955898  0.835442  0.633169  1
  O  O7  1  0.044365  0.164316  0.133168  1
  O  O8  1  0.955963  0.664318  0.133162  1
  O  O9  1  0.310019  0.688607  0.383818  1
  O  O10  1  0.690175  0.188607  0.383814  1
  O  O11  1  0.310089  0.811151  0.883813  1
  O  O12  1  0.690244  0.311152  0.883819  1
  O  O13  1  0.690174  0.311149  0.616250  1
  O  O14  1  0.310019  0.811148  0.616245  1
  O  O15  1  0.690244  0.188609  0.116245  1
  O  O16  1  0.310089  0.688610  0.116251  1
  O  O17  1  0.097988  0.821326  0.372726  1
  O  O18  1  0.902200  0.321327  0.372725  1
  O  O19  1  0.098061  0.678431  0.872726  1
  O  O20  1  0.902274  0.178433  0.872725  1
  O  O21  1  0.902200  0.178428  0.627339  1
  O  O22  1  0.097989  0.678429  0.627339  1
  O  O23  1  0.902273  0.321329  0.127340  1
  O  O24  1  0.098062  0.821330  0.127338  1
  O  O25  1  0.153783  0.723594  0.250033  1
  O  O26  1  0.846481  0.223591  0.250031  1
  O  O27  1  0.153783  0.776165  0.750031  1
  O  O28  1  0.846480  0.276167  0.750033  1
  O  O29  1  0.116160  0.996878  0.403393  1
  O  O30  1  0.884028  0.496879  0.403390  1
  O  O31  1  0.116235  0.502880  0.903392  1
  O  O32  1  0.884103  0.002880  0.903392  1
  O  O33  1  0.884028  0.002877  0.596674  1
  O  O34  1  0.116159  0.502878  0.596671  1
  O  O35  1  0.884103  0.496881  0.096672  1
  O  O36  1  0.116234  0.996881  0.096673  1
  O  O37  1  0.303643  0.886429  0.484230  1
  O  O38  1  0.696549  0.386430  0.484232  1
  O  O39  1  0.303714  0.613329  0.984233  1
  O  O40  1  0.696619  0.113329  0.984229  1
  O  O41  1  0.696550  0.113326  0.515832  1
  O  O42  1  0.303644  0.613326  0.515834  1
  O  O43  1  0.696619  0.386432  0.015835  1
  O  O44  1  0.303713  0.886432  0.015831  1
  O  O45  1  0.946272  0.889035  0.494356  1
  O  O46  1  0.053921  0.389037  0.494351  1
  O  O47  1  0.946341  0.610721  0.994353  1
  O  O48  1  0.053990  0.110724  0.994355  1
  O  O49  1  0.053922  0.110719  0.505713  1
  O  O50  1  0.946273  0.610722  0.505708  1
  O  O51  1  0.053990  0.389036  0.005709  1
  O  O52  1  0.946341  0.889040  0.005712  1
  O  O53  1  0.629201  0.615417  0.431376  1
  O  O54  1  0.370996  0.115416  0.431379  1
  O  O55  1  0.629267  0.884343  0.931377  1
  O  O56  1  0.371063  0.384342  0.931377  1
  O  O57  1  0.370995  0.384340  0.568686  1
  O  O58  1  0.629199  0.884339  0.568688  1
  O  O59  1  0.371063  0.115420  0.068687  1
  O  O60  1  0.629268  0.615419  0.068687  1
  O  O61  1  0.491098  0.749878  0.500032  1
  O  O62  1  0.509100  0.249878  0.500032  1
  O  O63  1  0.491164  0.749881  0.000032  1
  O  O64  1  0.509166  0.249881  0.000032  1
  Si  Si65  1  0.127103  0.725451  0.340871  1
  Si  Si66  1  0.873101  0.225451  0.340872  1
  Si  Si67  1  0.127162  0.774307  0.840872  1
  Si  Si68  1  0.873160  0.274308  0.840871  1
  Si  Si69  1  0.873101  0.274306  0.659193  1
  Si  Si70  1  0.127102  0.774305  0.659193  1
  Si  Si71  1  0.873161  0.225453  0.159193  1
  Si  Si72  1  0.127162  0.725454  0.159192  1
  Si  Si73  1  0.115184  0.898659  0.433366  1
  Si  Si74  1  0.885002  0.398660  0.433364  1
  Si  Si75  1  0.115260  0.601099  0.933366  1
  Si  Si76  1  0.885078  0.101100  0.933365  1
  Si  Si77  1  0.885003  0.101096  0.566700  1
  Si  Si78  1  0.115185  0.601097  0.566698  1
  Si  Si79  1  0.885078  0.398661  0.066699  1
  Si  Si80  1  0.115260  0.898663  0.066699  1
  Si  Si81  1  0.850742  0.597368  0.422659  1
  Si  Si82  1  0.149453  0.097367  0.422664  1
  Si  Si83  1  0.850810  0.902391  0.922662  1
  Si  Si84  1  0.149520  0.402390  0.922660  1
  Si  Si85  1  0.149452  0.402389  0.577401  1
  Si  Si86  1  0.850741  0.902387  0.577405  1
  Si  Si87  1  0.149521  0.097371  0.077404  1
  Si  Si88  1  0.850811  0.597370  0.077402  1
  Si  Si89  1  0.438508  0.837100  0.543847  1
  Si  Si90  1  0.561688  0.337100  0.543849  1
  Si  Si91  1  0.438576  0.662659  0.043850  1
  Si  Si92  1  0.561755  0.162658  0.043846  1
  Si  Si93  1  0.561688  0.162656  0.456215  1
  Si  Si94  1  0.438508  0.662655  0.456217  1
  Si  Si95  1  0.561755  0.337104  0.956218  1
  Si  Si96  1  0.438575  0.837102  0.956214  1
